118
1088_35_01010101.out	Energy:   -5701.9170125
C        -10.49480      -11.23740       -3.63090
S        -10.02010       -9.71580       -2.99250
C         -9.27580      -10.42940       -1.58590
C         -9.41700      -11.81310       -1.65850
C        -10.10150      -12.25290       -2.80400
O        -10.33220      -13.58330       -3.02160
C         -9.91680      -14.52030       -2.14370
O        -10.12760      -15.67840       -2.32760
C         -9.15090      -14.03640       -0.88040
O         -8.74340      -14.80810       -0.06720
O         -8.96130      -12.70690       -0.73230
C         -8.67940       -9.61840       -0.60000
C         -8.06030      -10.10440        0.53910
C         -7.51890       -9.29920        1.53650
C         -6.87480       -9.74460        2.74290
C         -6.58010      -11.04310        3.15630
C         -5.92820      -11.23170        4.36520
C         -5.56840      -10.14070        5.15330
C         -5.85650       -8.83820        4.75950
C         -6.51820       -8.62430        3.55670
C         -6.94410       -7.41900        2.87380
C         -7.53690       -7.83360        1.58460
O         -7.97010       -7.04010        0.76130
C         -6.96480       -6.07860        3.15610
S         -7.59610       -4.96300        1.94880
C         -7.35940       -3.55710        2.98160
C         -6.82170       -3.99110        4.22700
C         -6.59600       -5.33270        4.31720
O         -6.07910       -5.87920        5.45530
C         -5.76810       -5.11790        6.52890
O         -5.31660       -5.60890        7.51720
C         -6.02330       -3.59250        6.41760
O         -5.77600       -2.84980        7.31600
O         -6.54070       -3.13870        5.25280
C         -7.65630       -2.25740        2.67020
C         -8.09510       -1.82520        1.39810
C         -8.47630       -0.55990        1.05450
C         -8.71120        0.63820        1.82680
C         -8.83610        0.82570        3.20020
C         -9.10860        2.09520        3.69110
C         -9.28200        3.16920        2.82390
C         -9.18670        2.99560        1.45000
C         -8.89490        1.73410        0.93850
C         -8.79030        1.28290       -0.43820
C         -8.63620       -0.20390       -0.38620
O         -8.56900       -0.98590       -1.29900
C         -8.68310        2.07900       -1.54950
S         -8.47790        3.82060       -1.41930
C         -8.20490        4.06020       -3.13450
C         -8.35080        2.79630       -3.77590
C         -8.61400        1.74290       -2.94360
O         -8.83120        0.50030       -3.44750
C         -8.76820        0.23650       -4.76910
O         -9.00010       -0.84780       -5.20460
C         -8.38950        1.41310       -5.70260
O         -8.24960        1.27390       -6.87840
O         -8.23220        2.62840       -5.12410
C         -7.88300        5.29490       -3.62830
C         -7.56340        5.58490       -4.97740
C         -7.13100        6.80860       -5.40580
C         -6.70590        7.16420       -6.74230
C         -6.75060        6.41810       -7.91420
C         -6.27850        6.98600       -9.08980
C         -5.76450        8.28010       -9.09590
C         -5.70920        9.03470       -7.93130
C         -6.17950        8.48410       -6.74230
C         -6.20470        9.01410       -5.39230
C         -6.95110        8.02020       -4.56080
O         -7.41520        8.20190       -3.46110
C         -5.65820       10.18430       -4.93330
S         -5.04020       11.43770       -6.00340
C         -4.57300       12.50710       -4.69150
C         -4.88220       11.85680       -3.46380
C         -5.44940       10.61930       -3.58270
O         -5.67550        9.85500       -2.48160
C         -5.40670       10.30010       -1.23610
O         -5.55920        9.60450       -0.28030
C         -4.87380       11.75040       -1.10160
O         -4.68550       12.25530       -0.03990
O         -4.61130       12.41540       -2.25380
C         -3.99590       13.73820       -4.83580
C         -3.68000       14.30650       -6.09220
C         -3.09660       15.52800       -6.27110
C         -2.73800       16.14320       -7.52060
C         -2.88090       15.70420       -8.83100
C         -2.43450       16.51530       -9.86490
C         -1.84490       17.76320       -9.60660
C         -1.68990       18.22650       -8.31900
C         -2.13490       17.42410       -7.24690
C         -2.10240       17.64340       -5.87130
C         -2.68950       16.50150       -5.18870
O         -2.83190       16.34510       -3.99260
H        -11.02950      -11.31890       -4.56110
H         -8.72930       -8.54760       -0.76310
H         -7.99790      -11.17840        0.68260
H         -6.85190      -11.89310        2.54120
H         -5.69190      -12.23570        4.69850
H         -5.05270      -10.30690        6.09210
H         -5.55600       -8.01810        5.39500
H         -7.48650       -1.52200        3.45000
H         -8.07430       -2.55780        0.59250
H         -8.74280       -0.00300        3.89050
H         -9.19980        2.24750        4.76030
H         -9.50770        4.15130        3.22310
H         -9.36150        3.83930        0.79480
H         -7.83470        6.10570       -2.90990
H         -7.62160        4.77850       -5.70190
H         -7.15090        5.41090       -7.91450
H         -6.31100        6.41780      -10.01230
H         -5.40160        8.70700      -10.02410
H         -5.30510       10.03890       -7.96220
H         -3.77010       14.29150       -3.92980
H         -3.91960       13.70960       -6.97120
H         -3.33360       14.74320       -9.04870
H         -2.54030       16.18330      -10.89140
H         -1.50810       18.36690      -10.44200
H         -1.23450       19.19010       -8.12290
H         -1.71090       18.51100       -5.36430
