162
128_642_01010101_open.out	Energy:   -7890.7257028
C         25.67881       27.36799       -3.90386
C         25.91498       27.57447       -2.57422
C         24.95230       27.25906       -1.58068
C         23.68739       26.72386       -1.91739
C         23.42856       26.51145       -3.31125
C         24.42722       26.82758       -4.29704
N         24.03210       26.56273       -5.53102
S         22.50489       25.95932       -5.46670
N         22.32097       26.02377       -3.82978
C         22.74048       26.39160       -0.93722
C         22.97792       26.51951        0.43650
C         24.24724       27.08731        0.81208
C         25.21283       27.45334       -0.19082
N         26.32260       27.95780        0.31594
S         26.17992       27.98598        1.95363
N         24.66707       27.33697        2.03445
C         22.00915       26.04446        1.34668
C         22.17267       25.87569        2.71616
C         21.23055       25.25004        3.51884
C         21.39982       24.81277        4.88176
C         22.42106       25.07490        5.79197
C         22.35124       24.50994        7.05803
C         21.28694       23.68500        7.41610
C         20.26531       23.40534        6.51502
C         20.31460       23.97057        5.24788
C         19.41883       23.81939        4.11257
C         19.91215       24.76305        3.06788
O         19.31054       25.11359        2.06974
C         18.31132       23.02189        4.05544
C         17.48062       22.76190        2.93174
C         16.52488       21.77544        2.79215
C         16.04675       20.95551        3.85584
C         15.22347       19.87212        3.66675
C         14.72958       19.48960        2.36524
C         15.09601       20.36772        1.28166
C         15.94744       21.50218        1.49458
N         16.18204       22.18486        0.39799
S         15.37839       21.46060       -0.85094
N         14.71296       20.23447        0.03250
C         13.93613       18.38350        2.16692
C         13.52392       17.51971        3.22055
C         14.00724       17.86674        4.53834
C         14.83062       19.01920        4.75929
N         15.18518       19.17267        6.01471
S         14.52028       17.94244        6.89651
N         13.76316       17.19073        5.63726
C         12.68485       16.42538        3.07735
C         12.16610       15.94063        1.86333
C         11.23613       14.95024        1.68316
C         10.42530       14.15926        2.58830
C         10.35288       14.12092        3.97809
C          9.43979       13.27090        4.58933
C          8.59000       12.46575        3.83548
C          8.64567       12.48641        2.44898
C          9.56395       13.32372        1.82362
C          9.81135       13.51469        0.41035
C         10.85326       14.56285        0.29947
O         11.30660       15.05296       -0.71718
C          9.17381       12.86776       -0.61630
C          9.47256       13.03541       -1.98194
C          8.76729       12.47126       -3.03554
C          9.23513       12.64845       -4.36982
C          8.64146       12.07667       -5.47178
C          7.46438       11.25276       -5.36560
C          6.91575       11.11399       -4.04220
C          7.54917       11.70323       -2.89671
N          6.88262       11.48194       -1.78563
S          5.54073       10.58646       -2.13327
N          5.80781       10.46916       -3.75423
C          6.88635       10.63380       -6.44956
C          7.38419       10.75285       -7.77620
C          8.55295       11.58999       -7.92740
C          9.16217       12.24348       -6.80434
N         10.20278       12.97474       -7.13207
S         10.42499       12.86508       -8.76329
N          9.15471       11.85227       -9.06480
C          6.80169       10.16680       -8.89248
C          5.61029        9.42294       -8.85389
C          4.84462        8.97273       -9.89523
C          4.96339        8.98461      -11.33592
C          6.06411        9.19844      -12.15913
C          5.90090        9.12963      -13.53663
C          4.65691        8.85278      -14.09697
C          3.54626        8.63314      -13.29142
C          3.69410        8.69200      -11.91171
C          2.69774        8.57963      -10.86004
C          3.46993        8.50421       -9.58132
O          3.09094        8.10244       -8.50590
C          1.33789        8.60403      -10.96745
C          0.45770        8.85230       -9.87240
C         -0.65815        8.08733       -9.59797
C         -1.31191        7.27923      -10.57688
C         -2.55136        6.72270      -10.39601
C         -3.30194        6.87969       -9.17432
C         -2.58995        7.52607       -8.09793
C         -1.27777        8.08035       -8.29119
N         -0.78078        8.62318       -7.20616
S         -1.88203        8.45570       -5.98623
N         -3.03469        7.67153       -6.87186
C         -4.59311        6.42604       -9.05374
C         -5.30666        5.76204      -10.09817
C         -4.56112        5.53344      -11.31867
C         -3.20702        5.99321      -11.45021
N         -2.66572        5.71302      -12.61336
S         -3.77636        4.89741      -13.52401
N         -4.98725        4.91937      -12.40018
C         -6.62687        5.39136       -9.89537
C         -7.44896        4.73322      -10.83253
C         -8.77303        4.43725      -10.64482
C         -9.64222        3.79219      -11.59770
C         -9.36104        3.30868      -12.87087
C        -10.38578        2.75554      -13.62459
C        -11.68217        2.66548      -13.10887
C        -11.98070        3.12726      -11.84061
C        -10.97162        3.71523      -11.06335
C        -10.99108        4.31592       -9.77433
C         -9.61889        4.76568       -9.46188
O         -9.26818        5.30971       -8.43158
C        -12.02337        4.56218       -8.83321
C        -13.33731        4.27451       -8.93149
H         26.42195       27.60622       -4.65554
H         26.86127       27.98764       -2.24112
H         21.79534       25.97559       -1.27063
H         21.08398       25.69836        0.89854
H         23.11546       26.16820        3.16969
H         23.25321       25.71485        5.52230
H         23.13522       24.71151        7.77946
H         21.25617       23.25451        8.41082
H         19.44529       22.75800        6.80497
H         17.98194       22.55780        4.98459
H         17.60223       23.43754        2.08712
H         16.34604       21.19316        4.87068
H         13.59933       18.18009        1.15610
H         12.42906       15.90805        3.99581
H         12.53414       16.38715        0.94075
H         10.99391       14.73813        4.59386
H          9.38555       13.23824        5.67155
H          7.87877       11.81876        4.33643
H          7.97911       11.86146        1.86577
H          8.38288       12.16978       -0.35618
H         10.33376       13.64303       -2.24085
H         10.12625       13.24945       -4.52249
H          6.00327       10.03310       -6.26230
H          7.27472       10.36634       -9.84871
H          5.16393        9.24600       -7.87694
H          7.04123        9.40354      -11.73894
H          6.75450        9.29194      -14.18474
H          4.55422        8.80580      -15.17543
H          2.58314        8.41253      -13.73770
H          0.88115        8.43783      -11.94112
H          0.69466        9.67080       -9.19916
H         -0.81508        7.11006      -11.52649
H         -5.10762        6.58281       -8.11096
H         -7.06622        5.64672       -8.93646
H         -7.00464        4.44958      -11.78242
H         -8.35819        3.37250      -13.27797
H        -10.18289        2.39140      -14.62541
H        -12.46866        2.24083      -13.72147
H        -12.99344        3.04427      -11.46756
H        -11.67155        5.05887       -7.92941
H        -13.78235        3.79045       -9.78830
H        -14.01922        4.52921       -8.13220
