98
194_35_01010101.out	Energy:   -2971.3066172
C          8.52720        8.52770        2.29240
O          7.44950        8.95440        1.61000
C          6.38980        8.32960        2.17420
N          6.76180        7.53800        3.17150
C          8.10920        7.65450        3.25530
C          5.07800        8.54200        1.70330
C          4.00760        7.89980        2.29430
C          2.67500        8.02550        1.91020
C          1.55440        7.36710        2.51370
C          1.51020        6.49520        3.60320
C          0.28810        5.98700        4.01040
C         -0.88690        6.33940        3.34540
C         -0.86320        7.20470        2.25960
C          0.35380        7.72580        1.82980
C          0.68330        8.63280        0.75640
C          2.16250        8.85360        0.79740
O          2.80720        9.56730        0.05900
C         -0.13980        9.20820       -0.17780
O          0.34740       10.05510       -1.11860
C         -0.69460       10.44960       -1.89310
N         -1.85530        9.86280       -1.46870
C         -1.55060        9.12030       -0.44470
C         -0.56430       11.32360       -2.93710
C          0.68150       11.89750       -3.27780
C          0.87970       12.81010       -4.27650
C          2.13320       13.45380       -4.62330
C          3.40800       13.27890       -4.09810
C          4.45230       14.03920       -4.61030
C          4.23460       14.96330       -5.63010
C          2.96730       15.15020       -6.16690
C          1.91480       14.39330       -5.66440
C          0.51780       14.37070       -6.03200
C         -0.15770       13.36360       -5.18140
O         -1.33720       13.07050       -5.22780
C         -0.14610       15.12280       -6.96160
O          0.44870       16.09000       -7.70930
C         -0.52090       16.63220       -8.49590
N         -1.72310       16.01300       -8.27630
C         -1.52590       15.11160       -7.36000
C         -0.29530       17.67290       -9.35280
C         -1.34960       18.19540      -10.13580
C         -1.26260       19.27480      -10.96930
C         -2.33330       19.82810      -11.77890
C         -3.64390       19.39960      -11.95120
C         -4.47750       20.11810      -12.79980
C         -4.01680       21.24990      -13.46910
C         -2.71050       21.69270      -13.30770
C         -1.86660       20.98070      -12.46220
C         -0.48340       21.20540      -12.11200
C         -0.06900       20.12810      -11.18390
O          1.03770       19.99580      -10.69630
C          0.34770       22.22170      -12.49750
O         -0.04060       23.22920      -13.32230
C          1.02630       24.06300      -13.45670
N          2.09500       23.59900      -12.73780
C          1.71410       22.49870      -12.15610
C          0.98320       25.20540      -14.20730
C          2.10750       26.05470      -14.29920
C          2.15130       27.22890      -14.99780
C          3.26490       28.13070      -15.10100
C          4.54530       28.07120      -14.56260
C          5.43430       29.10290      -14.82450
C          5.06220       30.19950      -15.62050
C          3.80280       30.28790      -16.16860
C          2.87510       29.25280      -15.91980
C          1.55780       29.08950      -16.33930
C          1.03380       27.84220      -15.80170
O         -0.07970       27.37860      -15.96330
H          9.49030        8.91020        1.99890
H          8.68590        7.11540        3.98700
H          4.94660        9.21980        0.86980
H          4.23410        7.23880        3.12930
H          2.41910        6.21970        4.12590
H          0.24000        5.30990        4.85570
H         -1.83380        5.93290        3.68210
H         -1.79210        7.46210        1.76600
H         -2.28750        8.54070        0.08550
H         -1.45930       11.57590       -3.49040
H          1.53500       11.59120       -2.67690
H          3.59040       12.56330       -3.30470
H          5.45190       13.91210       -4.21000
H          5.06760       15.54420       -6.00970
H          2.80280       15.86930       -6.95980
H         -2.29990       14.46670       -6.97760
H          0.69930       18.09580       -9.41170
H         -2.30730       17.68600      -10.04340
H         -4.01520       18.52050      -11.43650
H         -5.50190       19.79300      -12.94350
H         -4.68860       21.79140      -14.12560
H         -2.35710       22.57300      -13.83020
H          2.34890       21.90690      -11.51730
H          0.06350       25.45290      -14.72210
H          2.99490       25.73470      -13.75530
H          4.84970       27.23270      -13.94590
H          6.43530       29.06760      -14.40970
H          5.78680       30.98590      -15.80100
H          3.51850       31.13510      -16.78190
H          0.98960       29.76280      -16.96150
