185
365_461_01010101.out	Energy:   -8436.4675829
C        -20.28570      -20.98900       19.11500
C        -21.51980      -21.51740       18.94050
C        -22.09080      -21.20280       17.67100
C        -21.23580      -20.42020       16.90420
S        -19.75840      -20.08560       17.74500
C        -21.42930      -19.90100       15.60600
C        -22.52850      -20.03470       14.76210
C        -23.78790      -20.75660       14.97370
O        -24.65320      -20.77500       14.11880
N        -24.04090      -21.44240       16.14840
C        -23.42110      -21.71680       17.36260
O        -24.03870      -22.40330       18.15440
C        -22.34850      -19.35720       13.53680
C        -21.13500      -18.71070       13.42930
S        -20.18560      -18.94160       14.87020
C        -20.61690      -17.93170       12.35520
C        -21.33110      -17.67390       11.22330
N        -20.91590      -16.93360       10.14450
C        -21.81330      -16.72240        9.10110
C        -21.49000      -15.98500        8.00290
C        -20.17740      -15.40300        7.89490
C        -19.25530      -15.64030        8.97420
C        -19.64090      -16.38340       10.04950
C        -17.93690      -15.05870        8.85170
C        -17.58360      -14.32250        7.77700
C        -18.50500      -14.07550        6.69100
C        -19.81970      -14.65230        6.80270
C        -20.74620      -14.41110        5.72780
C        -22.06030      -15.00220        5.84310
C        -22.40980      -15.74560        6.91390
C        -20.36360      -13.65350        4.66210
N        -19.08930      -13.10370        4.56950
C        -18.17940      -13.33170        5.59640
C        -18.74270      -12.34110        3.47780
C        -17.50670      -11.85030        3.13780
C        -17.51590      -11.10020        1.93740
C        -18.78470      -11.02110        1.36550
S        -19.96260      -11.88180        2.32010
C        -19.19660      -10.37120        0.19430
C        -18.43320       -9.65870       -0.73480
C        -16.99720       -9.38460       -0.74060
O        -16.47470       -8.75590       -1.64220
N        -16.16880       -9.82380        0.28410
C        -16.25060      -10.53370        1.47140
O        -15.22260      -10.67600        2.10810
C        -19.21650       -9.15350       -1.79360
C        -20.55880       -9.45620       -1.69310
S        -20.87330      -10.39640       -0.25820
C        -21.63460       -9.10480       -2.55500
C        -21.45820       -8.43400       -3.72910
N        -22.44820       -8.03790       -4.59540
C        -23.80140       -8.18690       -4.31240
C        -24.76960       -7.77090       -5.17790
C        -24.40290       -7.16300       -6.42900
C        -22.99850       -7.01890       -6.71090
C        -22.07980       -7.44810       -5.80130
C        -22.63820       -6.40880       -7.97090
C        -23.57450       -5.98800       -8.84700
C        -24.98710       -6.12110       -8.56920
C        -25.35600       -6.72850       -7.31730
C        -26.75980       -6.85720       -7.02700
C        -27.11930       -7.47270       -5.77030
C        -26.18170       -7.90460       -4.90000
C        -27.68080       -6.40310       -7.92400
N        -27.30780       -5.82120       -9.12930
C        -25.95440       -5.69400       -9.42850
C        -28.26500       -5.36240      -10.00450
C        -28.09680       -4.92190      -11.29400
C        -29.30400       -4.50680      -11.90330
C        -30.40380       -4.63390      -11.05460
S        -29.93270       -5.27640       -9.50260
C        -31.74710       -4.31290      -11.28410
C        -32.34780       -3.79950      -12.43760
C        -31.74620       -3.46240      -13.72670
O        -32.41580       -3.03170      -14.64650
N        -30.38470       -3.61560      -13.95610
C        -29.24520       -4.02490      -13.28310
O        -28.19010       -3.97340      -13.88870
C        -33.73230       -3.59390      -12.26880
C        -34.20270       -3.93060      -11.01630
S        -32.91020       -4.53290      -10.00940
C        -35.53690       -3.80000      -10.55260
C        -35.91530       -4.11140       -9.27980
N        -37.17470       -3.97980       -8.74700
C        -38.26010       -3.52820       -9.48880
C        -39.49290       -3.35470       -8.93170
C        -39.69840       -3.64580       -7.53870
C        -38.57420       -4.13860       -6.78920
C        -37.36710       -4.29190       -7.40530
C        -38.79420       -4.44230       -5.39390
C        -39.99740       -4.25540       -4.80960
C        -41.12750       -3.74410       -5.55010
C        -40.92380       -3.45780       -6.94420
C        -42.04700       -2.96360       -7.69430
C        -41.83630       -2.69200       -9.09760
C        -40.63270       -2.87660       -9.68070
C        -43.24490       -2.76580       -7.07300
N        -43.41980       -3.02580       -5.71900
C        -42.35030       -3.52400       -4.98560
C        -44.62600       -2.77860       -5.10620
C        -45.78680       -2.30830       -5.67130
C        -46.83850       -2.15060       -4.74180
C        -46.46530       -2.51090       -3.44230
S        -44.80400       -3.04760       -3.39130
C        -47.21160       -2.48380       -2.26470
C        -48.54250       -2.08160       -2.06920
C        -49.51730       -1.59230       -3.04460
O        -50.64650       -1.28440       -2.71020
N        -49.19940       -1.45950       -4.38810
C        -48.11890       -1.65220       -5.23640
O        -48.28300       -1.38740       -6.41420
C        -48.93970       -2.18450       -0.72780
C        -47.95220       -2.65720        0.12370
S        -46.48400       -2.98700       -0.76610
C        -48.00510       -2.87770        1.51660
C        -49.11950       -2.61340        2.27460
N        -49.24330       -2.80140        3.62640
C        -48.23080       -3.33140        4.40640
C        -48.37690       -3.50510        5.76400
C        -49.60090       -3.13430        6.39130
C        -50.64330       -2.59280        5.58280
C        -50.43590       -2.44380        4.23210
C        -51.87410       -2.22420        6.23170
C        -52.03920       -2.38390        7.56760
C        -50.99890       -2.92690        8.39250
C        -49.77780       -3.29840        7.77080
C        -48.73900       -3.83900        8.57320
C        -47.51260       -4.20920        7.93020
C        -47.33680       -4.05220        6.59470
C        -48.98200       -3.97490        9.94100
N        -50.12830       -3.62310       10.51690
C        -51.10670       -3.11520        9.77040
H        -19.64680      -21.07780       19.97790
H        -22.04540      -22.11880       19.66880
H        -24.95650      -21.88010       16.11420
H        -23.11060      -19.36530       12.77050
H        -19.61590      -17.53950       12.48900
H        -22.33920      -18.06190       11.12010
H        -22.78760      -17.17900        9.22580
H        -18.96970      -16.58120       10.87380
H        -17.22940      -15.23070        9.65630
H        -16.58870      -13.89530        7.70590
H        -22.76640      -14.83180        5.03680
H        -23.40130      -16.18170        6.98100
H        -21.02300      -13.44970        3.82830
H        -17.20640      -12.87420        5.48150
H        -16.59300      -12.00880        3.69110
H        -15.21280       -9.52540        0.11600
H        -18.77730       -8.57500       -2.59410
H        -22.62260       -9.40780       -2.22880
H        -20.45890       -8.17240       -4.06090
H        -24.04740       -8.63820       -3.36120
H        -21.01340       -7.35750       -5.96840
H        -21.58300       -6.29670       -8.19770
H        -23.28310       -5.53300       -9.78800
H        -28.17450       -7.58050       -5.54060
H        -26.47360       -8.36440       -3.96130
H        -28.74670       -6.48160       -7.75200
H        -25.71750       -5.22150      -10.37170
H        -27.16050       -4.89280      -11.83100
H        -30.15220       -3.32340      -14.90040
H        -34.35520       -3.19900      -13.05910
H        -36.24610       -3.41380      -11.27560
H        -35.17620       -4.48840       -8.57950
H        -38.07550       -3.31850      -10.53320
H        -36.49130       -4.65460       -6.88090
H        -37.95730       -4.82490       -4.81860
H        -40.14030       -4.48600       -3.75880
H        -42.67870       -2.32850       -9.67690
H        -40.49430       -2.66330      -10.73560
H        -44.10900       -2.39100       -7.60370
H        -42.55020       -3.72260       -3.94060
H        -45.92610       -2.06980       -6.71530
H        -49.99810       -1.10860       -4.90760
H        -49.93690       -1.91290       -0.41090
H        -47.10430       -3.26840        1.97520
H        -50.00960       -2.20970        1.80490
H        -47.31720       -3.60620        3.89850
H        -51.19400       -2.03620        3.57490
H        -52.67100       -1.81240        5.62140
H        -52.97380       -2.10000        8.04050
H        -46.71690       -4.62260        8.54140
H        -46.40220       -4.33700        6.12280
H        -48.21890       -4.38440       10.59720
H        -52.02030       -2.84520       10.29310
