157
365_1151_01010101.out	Energy:   -7950.9164510
C        -13.43900      -12.81660      -13.62170
C        -14.22330      -12.25400      -14.57250
C        -15.39390      -11.63980      -14.03850
C        -15.45350      -11.76450      -12.65930
S        -14.08660      -12.62510      -12.03980
C        -16.44690      -11.29270      -11.76390
C        -17.61080      -10.59100      -12.04580
C        -18.15150      -10.13870      -13.33360
O        -19.20280       -9.53430      -13.39300
N        -17.48610      -10.38230      -14.52310
C        -16.32390      -10.99460      -14.96940
O        -16.10820      -10.97640      -16.16360
C        -18.35010      -10.29530      -10.87230
C        -17.76580      -10.75950       -9.72400
S        -16.27600      -11.58040      -10.06840
C        -18.21650      -10.64670       -8.35900
C        -19.33490      -10.01280       -7.98390
C        -19.80870       -9.92810       -6.55290
C        -20.88610      -10.99290       -6.29480
N        -18.66420      -10.27110       -5.66460
N        -17.91500       -9.45220       -5.15190
C        -18.02100       -7.97320       -5.35910
C        -19.43200       -7.62060       -5.65470
C        -20.29380       -8.56550       -6.23140
N        -21.47920       -8.02140       -6.33870
O        -21.36170       -6.77900       -5.85270
N        -20.11820       -6.52940       -5.42540
C        -17.09800       -7.65080       -6.54420
C        -17.55340       -7.31980       -4.08900
C        -16.94630       -6.11650       -3.91950
C        -16.70110       -5.79800       -2.55250
C        -17.14960       -6.79580       -1.70180
S        -17.85490       -8.10920       -2.57970
C        -17.10160       -6.84720       -0.28610
C        -16.61060       -5.90090        0.60300
C        -15.98530       -4.59810        0.34470
O        -15.61140       -3.89100        1.25790
N        -15.79160       -4.13100       -0.94500
C        -16.03570       -4.52700       -2.25110
O        -15.67760       -3.77940       -3.13790
C        -16.75970       -6.31250        1.95180
C        -17.34660       -7.54230        2.08900
S        -17.73270       -8.22680        0.54170
C        -17.65930       -8.27560        3.29140
C        -17.47680       -7.80000        4.52900
C        -17.78650       -8.57090        5.78910
C        -16.47920       -8.96930        6.49260
N        -18.45320       -9.84340        5.41260
N        -19.66150      -10.03300        5.42850
C        -20.67140       -8.99460        5.79460
C        -20.05490       -7.97560        6.68020
C        -18.66660       -7.77590        6.67910
N        -18.38760       -6.85980        7.57120
O        -19.55920       -6.49640        8.10830
N        -20.58090       -7.17800        7.57520
C        -21.13100       -8.37830        4.46410
C        -21.79010       -9.71360        6.49550
C        -21.70160      -10.88310        7.18020
C        -22.92830      -11.27230        7.79100
C        -23.93930      -10.35760        7.54290
S        -23.38020       -9.03740        6.57140
C        -25.29220      -10.38760        7.96410
C        -25.93110      -11.31780        8.77280
C        -25.40760      -12.53280        9.40840
O        -26.11540      -13.22860       10.10750
N        -24.09540      -12.93680        9.22580
C        -22.95120      -12.51840        8.56300
O        -21.96520      -13.21990        8.65500
C        -27.29750      -10.99690        8.97340
C        -27.69410       -9.85560        8.32860
S        -26.37510       -9.13920        7.45730
C        -28.99930       -9.24380        8.28010
C        -30.04990       -9.65900        8.99890
C        -31.42760       -9.05540        8.91540
C        -32.42530      -10.09610        8.38430
N        -31.82480       -8.80200       10.33470
N        -31.77890       -7.71630       10.88730
C        -31.29580       -6.45240       10.24120
C        -31.43030       -6.54640        8.76920
C        -31.48060       -7.79860        8.13750
N        -31.60950       -7.59900        6.84960
O        -31.63080       -6.27170        6.67960
N        -31.52330       -5.62390        7.84460
C        -29.81430       -6.34810       10.65140
C        -32.09420       -5.33630       10.85210
C        -32.74090       -4.30440       10.25150
C        -33.40820       -3.44510       11.17240
C        -33.23940       -3.86120       12.48310
S        -32.27450       -5.29470       12.57530
C        -33.73810       -3.27910       13.67520
C        -34.55940       -2.17000       13.82650
C        -35.13580       -1.28010       12.81180
O        -35.85950       -0.35690       13.12500
N        -34.87020       -1.45330       11.46340
C        -34.14550       -2.29790       10.63520
O        -34.15600       -2.05600        9.44590
C        -34.84960       -1.90620       15.18920
C        -34.26090       -2.78810       16.05630
S        -33.32940       -3.97730       15.20260
C        -34.31760       -2.82850       17.49690
C        -35.08220       -2.02390       18.24300
C        -35.14030       -2.08590       19.75580
C        -36.29720       -3.00450       20.18730
N        -35.50180       -0.73590       20.22990
N        -34.60920        0.10490       20.56990
C        -33.33480       -0.18560       20.84300
C        -32.96240       -1.55030       20.89660
C        -33.84440       -2.51000       20.34250
N        -33.27180       -3.67890       20.40810
O        -32.07650       -3.47870       21.00380
N        -31.87600       -2.18990       21.29970
C        -32.41010        0.94120       21.15630
H        -12.50700      -13.33860      -13.76130
H        -14.01090      -12.25410      -15.63220
H        -18.00480       -9.99520      -15.30610
H        -19.28430       -9.75310      -10.91430
H        -17.58400      -11.11310       -7.60990
H        -19.99290       -9.54140       -8.70620
H        -20.47920      -11.98130       -6.50090
H        -21.74560      -10.81260       -6.93830
H        -21.20260      -10.94590       -5.25390
H        -17.43780       -8.19030       -7.42710
H        -16.07950       -7.95570       -6.30930
H        -17.11820       -6.58270       -6.75300
H        -16.66780       -5.44070       -4.71530
H        -15.33650       -3.22290       -0.92910
H        -16.42670       -5.69220        2.77190
H        -18.06740       -9.27120        3.14800
H        -17.07020       -6.80920        4.70360
H        -15.87240       -9.57360        5.82050
H        -16.70950       -9.54920        7.38500
H        -15.92580       -8.07660        6.77920
H        -20.29400       -7.87250        3.98480
H        -21.92690       -7.65830        4.64840
H        -21.49930       -9.16360        3.80590
H        -20.80140      -11.47570        7.26190
H        -23.91900      -13.80530        9.72230
H        -27.94270      -11.62190        9.57450
H        -29.10210       -8.40470        7.59840
H        -29.97000      -10.48880        9.69310
H        -32.40430      -10.98270        9.01570
H        -32.16150      -10.36950        7.36410
H        -33.42980       -9.67570        8.39430
H        -29.25770       -7.18670       10.23490
H        -29.73690       -6.36970       11.73730
H        -29.39620       -5.41530       10.27680
H        -32.76980       -4.12520        9.18620
H        -35.33390       -0.73430       10.91560
H        -35.47340       -1.07440       15.48430
H        -33.68640       -3.57420       17.97240
H        -35.73330       -1.27770       17.80160
H        -37.22980       -2.64090       19.75980
H        -36.37710       -3.00080       21.27310
H        -36.10830       -4.01950       19.84180
H        -32.85810        1.88710       20.85580
H        -31.45760        0.80580       20.64220
H        -32.20460        0.97420       22.22920
