162
365_1181_01010101.out	Energy:  -10570.1137641
C          8.13590        0.16980       -7.18970
C          7.73580        1.44570       -6.97690
C          6.68150        1.54890       -6.02120
C          6.30930        0.30310       -5.52800
S          7.25190       -0.96310       -6.23970
C          5.31570       -0.02330       -4.57960
C          4.44580        0.81710       -3.88420
C          4.32620        2.27510       -3.94390
O          3.51060        2.87630       -3.26610
N          5.13470        3.03090       -4.77260
C          6.15370        2.86750       -5.70200
O          6.58180        3.87820       -6.23110
C          3.58910        0.10340       -3.02030
C          3.78620       -1.26430       -3.04130
S          5.05980       -1.68150       -4.15240
C          3.11560       -2.28250       -2.31610
C          2.10510       -2.04880       -1.41970
C          1.43900       -3.06140       -0.70650
C          0.42400       -2.81020        0.19490
C         -0.30270       -3.76490        0.95040
C         -1.25650       -3.21570        1.76610
C         -1.31870       -1.80750        1.68730
S         -0.14150       -1.19900        0.55430
C         -2.14500       -0.92330        2.36010
C         -3.15920       -1.17900        3.30970
C         -3.77220       -0.04470        3.76990
C         -3.26500        1.15330        3.20240
S         -1.99050        0.79210        2.06580
C         -3.66860        2.44240        3.46790
C         -3.10620        3.58180        2.86510
C         -3.44230        4.91010        3.08110
C         -2.68610        5.82140        2.32460
C         -1.74930        5.18080        1.50640
S         -1.82210        3.45340        1.69270
C         -0.82200        5.72720        0.61060
C         -0.57040        7.06850        0.30130
C         -1.21160        8.27580        0.83200
O         -0.86950        9.38290        0.46830
N         -2.23570        8.20500        1.76680
C         -2.95470        7.25500        2.47570
O         -3.81630        7.65810        3.23210
C          0.44760        7.21160       -0.65760
C          0.98220        6.01000       -1.09430
S          0.20990        4.66950       -0.29470
C          1.99450        5.76740       -2.04960
C          2.67580        6.74050       -2.73940
C          3.64850        6.41880       -3.69870
C          4.37290        7.32640       -4.44330
C          5.32850        7.01050       -5.44160
C          5.88030        8.10790       -6.04270
C          5.39030        9.33350       -5.53580
S          4.21350        9.05830       -4.28210
C          5.74800       10.61470       -5.92400
C          6.65140       10.99690       -6.94030
C          6.78290       12.35190       -7.07320
C          5.99790       13.10030       -6.15630
S          5.07400       12.02130       -5.14190
C          6.01990       14.47410       -6.04470
C          5.33210       15.25870       -5.09690
C          4.38430       14.89700       -4.15310
C          3.97630       15.95200       -3.31720
C          4.62860       17.15180       -3.61910
S          5.71770       16.95590       -4.95500
C          4.57660       18.37850       -2.94570
C          3.77810       18.76700       -1.86390
C          2.75030       18.00650       -1.15230
O          2.11290       18.50000       -0.24080
N          2.48500       16.68050       -1.46360
C          3.01580       15.66750       -2.24980
O          2.63620       14.53400       -2.02460
C          4.07470       20.07110       -1.42330
C          5.08810       20.68590       -2.13630
S          5.67630       19.63790       -3.39890
C          5.68940       21.95350       -1.96590
C          5.31590       22.89400       -1.03740
C          5.91000       24.15530       -0.84770
C          7.03530       24.67920       -1.45980
C          7.52640       25.99580       -1.26310
C          8.65020       26.29140       -1.98930
C          9.10560       25.21400       -2.77790
S          8.06910       23.82660       -2.57540
C         10.18630       25.14440       -3.64150
C         11.08490       26.16070       -4.03280
C         12.01020       25.74520       -4.95230
C         11.88770       24.37790       -5.31090
S         10.56360       23.63860       -4.44710
C         12.66460       23.67970       -6.20710
C         12.51650       22.30930       -6.48500
C         13.24560       21.55410       -7.39010
C         12.88650       20.19610       -7.42330
C         11.86380       19.89540       -6.51570
S         11.34580       21.31790       -5.65510
C         11.28550       18.65530       -6.21220
C         11.54030       17.40000       -6.77520
C         12.44520       17.03480       -7.86810
O         12.50450       15.89350       -8.28360
N         13.27420       17.97020       -8.46800
C         13.59260       19.31500       -8.35760
O         14.47230       19.73870       -9.08190
C         10.78570       16.37900       -6.16850
C          9.95990       16.81770       -5.14960
S         10.10230       18.54250       -4.94700
C          9.09530       16.07330       -4.31000
C          8.90980       14.71700       -4.40490
C          8.04490       13.92310       -3.62530
C          7.26660       14.29290       -2.54790
C          6.28750       13.45700       -1.93980
C          5.59380       14.05280       -0.92750
C          6.00980       15.38290       -0.66570
S          7.30590       15.84130       -1.74830
C          5.50460       16.28380        0.24260
C          4.38550       16.11750        1.11160
C          4.08030       17.22670        1.82740
C          4.95420       18.34390        1.57870
S          6.17950       17.88440        0.40150
C          4.87360       19.56820        2.12420
H          8.90780       -0.17580       -7.85690
H          8.15130        2.31620       -7.46430
H          4.90590        4.01550       -4.68230
H          2.85290        0.60590       -2.40900
H          3.43640       -3.30420       -2.49660
H          1.78560       -1.02610       -1.23710
H          1.73240       -4.09450       -0.86930
H         -0.10510       -4.82520        0.87320
H         -1.90610       -3.78780        2.41400
H         -3.41290       -2.18000        3.63040
H         -4.57040       -0.03670        4.49940
H         -4.46610        2.59890        4.18700
H         -4.21380        5.22950        3.76790
H         -2.55600        9.13880        2.00580
H          0.76530        8.18260       -1.01070
H          2.23910        4.72810       -2.24920
H          2.46360        7.79040       -2.55770
H          3.83580        5.36350       -3.87800
H          5.58330        5.98960       -5.69290
H          6.62320        8.06150       -6.82640
H          7.17970       10.27450       -7.54660
H          7.42920       12.83380       -7.79370
H          6.68460       15.00450       -6.72000
H          3.97510       13.90330       -4.04780
H          1.79210       16.30220       -0.82440
H          3.55780       20.52100       -0.58730
H          6.50080       22.17210       -2.65040
H          4.46890       22.67180       -0.39350
H          5.42180       24.80890       -0.12950
H          7.03260       26.69380       -0.60070
H          9.15490       27.24730       -1.96620
H         11.02330       27.16800       -3.64450
H         12.77420       26.38050       -5.37880
H         13.45130       24.21110       -6.73310
H         14.02480       21.96110       -8.01930
H         13.84560       17.52920       -9.18240
H         10.86930       15.34860       -6.48430
H          8.54520       16.64400       -3.57020
H          9.44740       14.18250       -5.18380
H          7.94750       12.88620       -3.93640
H          6.10180       12.45410       -2.29970
H          4.78860       13.58190       -0.38190
H          3.83390       15.18860        1.15420
H          3.24950       17.30800        2.51400
H          4.09810       19.80950        2.83680
H          5.56850       20.35610        1.87400
