226
365_176_01010101.out	Energy:   -9227.9543799
C          2.40460       14.43900       -9.32700
C          2.73690       15.35820      -10.26560
C          1.72330       15.53810      -11.25330
C          0.63170       14.71470      -11.01910
S          0.85860       13.74020       -9.60630
C         -0.55680       14.56670      -11.77180
C         -0.99040       15.25740      -12.89430
C         -0.32960       16.34840      -13.61350
O         -0.86990       16.92560      -14.53420
N          0.95660       16.76020      -13.27580
C          1.94770       16.47840      -12.34960
O          3.01410       17.05480      -12.48440
C         -2.25300       14.79480      -13.34880
C         -2.77020       13.77590      -12.59050
S         -1.69140       13.35940      -11.28650
C         -4.03230       13.10110      -12.70640
C         -4.40930       12.22110      -11.75420
C         -5.64200       11.48160      -11.59490
C         -5.93970       10.94200      -10.35060
C         -7.14100       10.20420      -10.13160
C         -8.05370       10.02700      -11.23230
C         -7.71590       10.60080      -12.49650
C         -6.56430       11.29760      -12.67070
C         -9.22680        9.31810      -11.03760
C         -9.55570        8.75910       -9.78550
C         -8.63940        8.93200       -8.68400
C         -8.95520        8.37770       -7.43980
C        -10.13970        7.66340       -7.23520
C        -11.05830        7.49460       -8.33560
C        -10.73950        8.04660       -9.58120
C        -12.25200        6.77970       -8.12240
C        -12.56430        6.23990       -6.88330
C        -11.64770        6.40730       -5.78590
C        -10.46600        7.10580       -5.98380
C        -11.99210        5.84710       -4.51890
C        -13.16120        5.17210       -4.34670
C        -14.06470        5.00620       -5.42940
C        -13.77580        5.52040       -6.65590
C         -7.45180        9.65720       -8.89360
C         -5.02430       11.22850       -9.22940
C         -5.06820       12.31850       -8.41540
C         -3.89570       12.48890       -7.62550
C         -2.96810       11.48530       -7.85610
S         -3.55830       10.32520       -8.99900
C         -1.63640       11.38220       -7.38270
C         -0.88730       12.33890       -6.70880
C         -1.29460       13.62990       -6.14730
O         -0.48810       14.37210       -5.62350
N         -2.62270       14.02750       -6.14700
C         -3.81430       13.66660       -6.75860
O         -4.77790       14.38100       -6.56950
C          0.47030       11.95000       -6.57650
C          0.74030       10.71630       -7.10530
S         -0.68090       10.00420       -7.80300
C          2.02010       10.06530       -7.17910
C          2.20060        8.75050       -7.38410
C          3.53970        8.16190       -7.53490
C          4.42130        8.60550       -8.50870
C          5.78740        8.13640       -8.50130
C          6.16550        7.14320       -7.52400
C          5.18920        6.65910       -6.60550
C          3.92730        7.16100       -6.60310
C          7.46670        6.66740       -7.48050
C          8.46510        7.15290       -8.34430
C          8.10350        8.16510       -9.30310
C          9.09430        8.70650      -10.12750
C         10.42300        8.27280      -10.05810
C         10.77060        7.21620       -9.13790
C          9.78340        6.69200       -8.29760
C         12.10050        6.75430       -9.10150
C         13.08750        7.31690       -9.89680
C         12.75230        8.40660      -10.77560
C         11.43830        8.84730      -10.84680
C         13.79540        9.00660      -11.54310
C         15.07800        8.55950      -11.45180
C         15.40490        7.47370      -10.59790
C         14.44190        6.86970       -9.84930
C          6.76370        8.59750       -9.37030
C          3.89190        9.47260       -9.56030
C          2.65270        9.35000      -10.13350
C          2.35500       10.34210      -11.10210
C          3.41540       11.21840      -11.27930
S          4.73650       10.83590      -10.22800
C          3.53870       12.30740      -12.16690
C          2.62270       12.82120      -13.07740
C          1.25840       12.37550      -13.35630
O          0.55590       12.94980      -14.16590
N          0.69280       11.30080      -12.68140
C          1.02340       10.36850      -11.70810
O          0.15360        9.59120      -11.36420
C          3.12980       13.96350      -13.75140
C          4.40170       14.30700      -13.36870
S          5.01250       13.20230      -12.16930
C          5.18410       15.46160      -13.70640
C          6.45100       15.56230      -13.25210
C          7.33830       16.70550      -13.26150
C          8.33410       16.80290      -12.29270
C          9.27350       17.88790      -12.31950
C          9.15330       18.87680      -13.36270
C          8.09850       18.75000      -14.31640
C          7.22680       17.71180      -14.26600
C         10.04730       19.93280      -13.41790
C         11.08340       20.07930      -12.47440
C         11.19360       19.10560      -11.41690
C         12.21040       19.24210      -10.46760
C         13.12760       20.29670      -10.52310
C         13.01880       21.26900      -11.58420
C         11.99620       21.13490      -12.52970
C         13.94820       22.32490      -11.63840
C         14.96110       22.45010      -10.69910
C         15.06750       21.48260       -9.63850
C         14.15790       20.43750       -9.57370
C         16.11610       21.63280       -8.68170
C         16.99940       22.66460       -8.76790
C         16.89600       23.61730       -9.81550
C         15.91080       23.51450      -10.74880
C         10.27330       18.04010      -11.36970
C          8.36060       15.79960      -11.22730
C          7.28180       15.38690      -10.49430
C          7.54500       14.27800       -9.64710
C          8.86720       13.86020       -9.73960
S          9.76260       14.84250      -10.85120
C          9.50620       12.78830       -9.07620
C          8.95620       11.82760       -8.23110
C          7.57120       11.64860       -7.79330
O          7.23320       10.69140       -7.12440
N          6.58640       12.57040       -8.11770
C          6.43610       13.71450       -8.88200
O          5.32370       14.21120       -8.91890
C          9.92490       10.90070       -7.77660
C         11.18940       11.14370       -8.25520
S         11.20080       12.52870       -9.30480
C         12.40820       10.43260       -8.01050
C         12.50960        9.37160       -7.17890
C         13.71260        8.60780       -6.92450
C         14.94170        8.92650       -7.45630
C         16.08810        8.12130       -7.22450
C         15.95820        6.94170       -6.40800
C         14.67450        6.64460       -5.85450
C         13.60350        7.44070       -6.09830
C         17.06240        6.13790       -6.18680
C         18.32200        6.44410       -6.74280
C         18.45370        7.62390       -7.56460
C         19.69950        7.93100       -8.12120
C         20.82170        7.12740       -7.89680
C         20.69050        5.95090       -7.07120
C         19.44230        5.64090       -6.51960
C         21.82450        5.14900       -6.84290
C         23.05910        5.46300       -7.39230
C         23.18950        6.63410       -8.21910
C         22.07980        7.43310       -8.45130
C         24.46880        6.93610       -8.77580
C         25.54420        6.13880       -8.53120
C         25.41580        4.98490       -7.71390
C         24.21490        4.65760       -7.16350
C         17.32240        8.43270       -7.78120
H          2.99370       14.12330       -8.48300
H          3.66930       15.90400      -10.28430
H          1.27000       17.47830      -13.92180
H         -2.74270       15.22350      -14.21160
H         -4.66220       13.36640      -13.54910
H         -3.69670       12.06800      -10.94900
H         -8.40740       10.46600      -13.32170
H         -6.32100       11.72060      -13.63890
H         -9.91590        9.18660      -11.86580
H         -8.26480        8.50760       -6.61240
H        -11.43070        7.91890      -10.40840
H        -12.94200        6.65350       -8.95090
H         -9.77330        7.23220       -5.15770
H        -11.29900        5.97470       -3.69380
H        -13.41790        4.75220       -3.38040
H        -14.98840        4.46310       -5.26320
H        -14.46350        5.39490       -7.48580
H         -6.76440        9.78860       -8.06390
H         -5.88200       13.02910       -8.39280
H         -2.73060       14.90840       -5.65310
H          1.20350       12.58040       -6.09340
H          2.88300       10.71870       -7.07870
H          1.35170        8.07280       -7.39160
H          5.48370        5.89760       -5.89160
H          3.19510        6.82290       -5.87850
H          7.72960        5.90930       -6.74940
H          8.83030        9.49110      -10.83000
H         10.05020        5.91630       -7.58670
H         12.35660        5.94800       -8.42140
H         11.18230        9.66190      -11.51740
H         13.54190        9.83330      -12.19870
H         15.86640        9.02590      -12.03210
H         16.43440        7.13720      -10.54570
H         14.68870        6.04340       -9.19090
H          6.52300        9.33880      -10.12270
H          1.94560        8.56860       -9.89460
H         -0.27090       11.17270      -12.97660
H          2.54500       14.50450      -14.48180
H          4.68010       16.26520      -14.23120
H          6.84950       14.68770      -12.74370
H          8.01200       19.50590      -15.08970
H          6.44020       17.61680      -15.00570
H          9.94910       20.67250      -14.20620
H         12.29290       18.50990       -9.67040
H         11.91220       21.86730      -13.32630
H         13.86570       23.05450      -12.43800
H         14.23750       19.70660       -8.77510
H         16.19240       20.90290       -7.88250
H         17.79360       22.77230       -8.03750
H         17.61450       24.42820       -9.85990
H         15.82860       24.24100      -11.55050
H         10.36790       17.32310      -10.56150
H          6.30570       15.84830      -10.54380
H          5.69860       12.29760       -7.70680
H          9.66200       10.08660       -7.11630
H         13.27740       10.79840       -8.54760
H         11.62040        9.02330       -6.66020
H         15.06490        9.80390       -8.08230
H         14.57450        5.76050       -5.23350
H         12.63440        7.19990       -5.67450
H         16.96450        5.24870       -5.57200
H         19.79800        8.81710       -8.74050
H         19.34360        4.75480       -5.90030
H         21.72440        4.26570       -6.21990
H         22.17700        8.31750       -9.07330
H         24.56360        7.81870       -9.39970
H         26.51300        6.37440       -8.95730
H         26.29000        4.36880       -7.53520
H         24.11330        3.77660       -6.53850
H         17.42100        9.31880       -8.40050
