202
365_768_01010101.out	Energy:   -8610.1022437
C        -36.07120       13.00170      -18.10650
C        -36.84160       13.91980      -17.47520
C        -36.81670       13.78890      -16.05550
C        -36.00100       12.74220      -15.65180
S        -35.28220       11.93940      -17.00620
C        -35.71010       12.29270      -14.34110
C        -36.17210       12.78440      -13.12550
C        -37.08440       13.90120      -12.84980
O        -37.38340       14.20030      -11.71140
N        -37.63570       14.65520      -13.87240
C        -37.61310       14.72330      -15.25840
O        -38.28150       15.59090      -15.78350
C        -35.64820       12.06430      -12.02640
C        -34.80090       11.04320      -12.38740
S        -34.63970       10.95390      -14.11540
C        -34.08740       10.11740      -11.56450
C        -34.10380       10.12740      -10.20760
C        -33.31750        9.26330       -9.37890
C        -32.79380        9.64680       -8.17250
C        -31.80670        8.68400       -7.76890
O        -31.06300        8.95030       -6.68450
C        -29.73820        8.46730       -6.54260
C        -31.73210        7.66120       -8.70400
C        -32.76120        7.92900       -9.70130
C        -33.34110        7.01760      -10.54950
C        -34.59210        7.14830      -11.25890
C        -34.82000        5.99170      -11.94190
O        -35.90580        5.76090      -12.69460
C        -36.06460        4.51100      -13.34190
C        -33.70870        5.06610      -11.70610
C        -32.84690        5.66630      -10.86260
C        -30.87730        6.49340       -8.66620
C        -30.66980        5.72840       -7.57140
C        -29.78290        4.60470       -7.54090
C        -29.47480        3.82400       -6.45460
C        -28.53580        2.80090       -6.73290
C        -28.14190        2.80630       -8.06860
S        -28.92410        4.07280       -8.95630
C        -27.23810        1.95070       -8.72910
C        -26.43890        0.94470       -8.18890
C        -26.27890        0.51400       -6.79850
O        -25.41560       -0.28680       -6.48160
N        -27.10740        0.98620       -5.79850
C        -28.11440        1.93050       -5.63330
O        -28.60650        2.02520       -4.52700
C        -25.63630        0.32400       -9.16830
C        -25.79350        0.83960      -10.43630
S        -26.97730        2.11350      -10.43540
C        -25.03790        0.51670      -11.60470
C        -24.06690       -0.43470      -11.57160
C        -23.10170       -0.71290      -12.57980
C        -23.21740       -0.54580      -13.94590
C        -22.05120       -1.07350      -14.56740
O        -21.77220       -1.07480      -15.87980
C        -22.67020       -0.46100      -16.78870
C        -21.17580       -1.58070      -13.59840
C        -21.81650       -1.38250      -12.31190
C        -21.35400       -1.75180      -11.06840
C        -21.77530       -1.26060       -9.78530
C        -21.15010       -2.00480       -8.82160
O        -21.23280       -1.93850       -7.49850
C        -22.16000       -1.03390       -6.90740
C        -20.30800       -3.01920       -9.46660
C        -20.39700       -2.84290      -10.79730
C        -19.81370       -1.95780      -13.79230
C        -19.20820       -2.23200      -14.97830
C        -17.80890       -2.47440      -15.09180
C        -17.10410       -2.77420      -16.23640
C        -15.71000       -2.89640      -16.03580
C        -15.35450       -2.68420      -14.70480
S        -16.74250       -2.35290      -13.72180
C        -14.07500       -2.65930      -14.11950
C        -12.83170       -2.82280      -14.72850
C        -12.49770       -3.15140      -16.11420
O        -11.34000       -3.29980      -16.46780
N        -13.48210       -3.31780      -17.07230
C        -14.86350       -3.21420      -17.18810
O        -15.33960       -3.40340      -18.29000
C        -11.77080       -2.65160      -13.81360
C        -12.17530       -2.37260      -12.52810
S        -13.90980       -2.32860      -12.42550
C        -11.33890       -2.14750      -11.38980
C        -10.01370       -1.89610      -11.54810
C         -9.03810       -1.69650      -10.52920
C         -9.24310       -1.41400       -9.20070
C         -7.98420       -1.08040       -8.60070
O         -7.94090       -0.89070       -7.27260
C         -6.74610       -1.04260       -6.52680
C         -6.97960       -1.10320       -9.56290
C         -7.59200       -1.55100      -10.79890
C         -6.97940       -1.78000      -12.01060
C         -7.48710       -2.54060      -13.12250
C         -6.61380       -2.39850      -14.16480
O         -6.66480       -2.89170      -15.40040
C         -7.82030       -3.61930      -15.80160
C         -5.50930       -1.52740      -13.75310
C         -5.70510       -1.19510      -12.46280
C         -5.57350       -0.79780       -9.41080
C         -5.10390        0.29500       -8.76810
C         -3.71690        0.61870       -8.62850
C         -3.19360        1.72880       -8.01330
C         -1.77910        1.78560       -8.04160
C         -1.22730        0.68940       -8.69790
S         -2.45580       -0.39550       -9.26430
C          0.12860        0.38790       -8.94000
C          1.26540        1.10380       -8.57390
C          1.38280        2.35390       -7.81940
O          2.46930        2.82700       -7.54820
N          0.26310        3.04510       -7.38350
C         -1.11860        2.92670       -7.40440
O         -1.75970        3.80700       -6.86430
C          2.45260        0.47140       -9.01020
C          2.23940       -0.70470       -9.69090
S          0.53930       -1.05630       -9.80680
C          3.24450       -1.56740      -10.21750
C          2.99550       -2.74400      -10.84610
C          3.96770       -3.64790      -11.38250
C          3.74800       -4.38210      -12.52670
C          4.97910       -4.99710      -12.91460
O          5.18820       -5.80540      -13.96920
C          4.10450       -6.13810      -14.81740
C          5.98050       -4.67120      -12.01070
C          5.38880       -3.82180      -11.00120
C          6.00950       -3.28630       -9.89520
C          5.40690       -2.83490       -8.66650
C          6.40400       -2.35060       -7.86890
O          6.35320       -1.83670       -6.63650
C          5.08360       -1.66670       -6.02850
C          7.68140       -2.43470       -8.57980
C          7.45270       -3.02310       -9.76890
C          7.28040       -5.32080      -12.04690
C          8.00810       -5.70950      -11.00040
H        -35.91950       12.88640      -19.16680
H        -37.42540       14.68420      -17.96820
H        -38.23870       15.37940      -13.49320
H        -35.90820       12.31630      -11.00800
H        -33.48250        9.38430      -12.08880
H        -34.64270       10.91360       -9.68550
H        -32.98080       10.56870       -7.64410
H        -29.19870        9.20690       -5.94620
H        -29.25110        8.35350       -7.51620
H        -29.72230        7.50540       -6.01840
H        -35.26970        7.98160      -11.19910
H        -37.01520        4.55890      -13.87540
H        -36.09670        3.69020      -12.61650
H        -35.25530        4.33000      -14.05860
H        -33.62120        4.07710      -12.12810
H        -31.93000        5.24130      -10.49050
H        -30.37650        6.22560       -9.59350
H        -31.20120        5.93650       -6.64780
H        -29.88880        3.96880       -5.46670
H        -26.89830        0.53450       -4.91340
H        -24.95250       -0.47090       -8.90870
H        -25.19720        1.12380      -12.48970
H        -23.96650       -1.01860      -10.66390
H        -24.07050       -0.13010      -14.45950
H        -22.21870       -0.55320      -17.77750
H        -22.81100        0.59890      -16.54900
H        -23.64240       -0.96650      -16.78400
H        -22.36220       -0.37470       -9.61760
H        -22.11000       -1.19900       -5.83110
H        -23.17740       -1.22760       -7.26280
H        -21.88980        0.00280       -7.13400
H        -19.74600       -3.76280       -8.92400
H        -19.95740       -3.46630      -11.55910
H        -19.19530       -1.97580      -12.89880
H        -19.77210       -2.26480      -15.90310
H        -17.55750       -2.89980      -17.20950
H        -13.07010       -3.54340      -17.97270
H        -10.74130       -2.75960      -14.12300
H        -11.79680       -2.19290      -10.40750
H         -9.64850       -1.80340      -12.56400
H        -10.18030       -1.40320       -8.66650
H         -7.04470       -1.33540       -5.51730
H         -6.18880       -0.10090       -6.47500
H         -6.10400       -1.81670       -6.95870
H         -8.32840       -3.21030      -13.08890
H         -7.68280       -3.86120      -16.85580
H         -8.72710       -3.01700      -15.67760
H         -7.91870       -4.54350      -15.22230
H         -4.70840       -1.22420      -14.40880
H         -5.10950       -0.51300      -11.87760
H         -4.86820       -1.46890       -9.89550
H         -5.79630        1.01870       -8.34840
H         -3.78910        2.49960       -7.54480
H          0.53790        3.88960       -6.89080
H          3.43080        0.88750       -8.81370
H          4.26400       -1.21910      -10.08860
H          1.95910       -3.00950      -11.04740
H          2.81870       -4.42920      -13.07340
H          4.50180       -6.81410      -15.57620
H          3.69450       -5.24610      -15.30510
H          3.30730       -6.64470      -14.26100
H          4.37130       -2.97190       -8.40530
H          5.25870       -1.17560       -5.07050
H          4.59590       -2.63390       -5.86140
H          4.43510       -1.03950       -6.65140
H          8.61350       -2.06660       -8.18130
H          8.16420       -3.18140      -10.56320
H          7.61470       -5.57580      -13.05040
H          7.69620       -5.55170       -9.97680
H          8.94990       -6.22350      -11.13280
