178
365_395_01010101.out	Energy:   -7999.0824124
C         -8.70170        5.76020       18.09680
C         -9.30490        6.37240       17.05000
C         -9.84640        5.45450       16.10210
C         -9.62500        4.13830       16.47930
S         -8.76450        4.04410       17.97780
C         -9.99600        2.94530       15.81270
C        -10.68440        2.79040       14.61540
C        -11.22060        3.80680       13.70270
O        -11.80320        3.49200       12.68420
N        -11.08370        5.15990       13.96500
C        -10.52560        5.99420       14.92370
O        -10.62690        7.19150       14.74480
C        -10.86000        1.42800       14.27460
C        -10.31840        0.55460       15.18700
S         -9.57620        1.41530       16.50140
C        -10.28500       -0.87700       15.16770
C        -10.82760       -1.63700       14.18690
C        -10.77230       -3.06960       14.13160
C        -11.29770       -3.85100       13.10750
C        -11.01110       -5.22400       13.38440
C        -11.27820       -6.37610       12.68000
C        -10.81400       -7.59620       13.21910
C        -10.87880       -8.89830       12.73770
C        -10.21020       -9.76830       13.66370
C         -9.74780       -8.99430       14.72330
C        -10.09650       -7.62920       14.48140
C         -9.83700       -6.47840       15.19020
C        -10.28660       -5.25640       14.64260
C        -10.15110       -3.94610       15.08440
C         -9.98360      -11.17700       13.51480
C        -10.36910      -11.91890       12.44910
C        -10.03140      -13.29850       12.27000
C         -9.31250      -14.13320       13.09240
C         -9.08440      -15.41710       12.54430
C         -9.65410      -15.55680       11.28220
S        -10.47320      -14.11090       10.79790
C         -9.58690      -16.65130       10.39290
C         -8.85830      -17.83070       10.51240
C         -8.05510      -18.32610       11.63320
O         -7.46880      -19.38840       11.56880
N         -7.95690      -17.61750       12.82160
C         -8.31450      -16.38120       13.33610
O         -7.95480      -16.12290       14.46770
C         -8.95230      -18.63330        9.34980
C         -9.74760      -18.09560        8.36870
S        -10.40960      -16.56960        8.87150
C        -10.02860      -18.60610        7.05720
C         -9.24830      -19.51770        6.43400
C         -9.45840      -20.00260        5.09710
C         -8.49190      -20.62550        4.31540
C         -9.05300      -20.90350        3.03010
C         -8.50000      -21.43210        1.88580
C         -9.33280      -21.55250        0.75270
C         -9.07080      -21.99640       -0.53860
C        -10.28240      -21.93630       -1.30290
C        -11.29100      -21.45410       -0.47670
C        -10.73330      -21.17530        0.81160
C        -11.27960      -20.62420        1.94880
C        -10.43470      -20.46010        3.06880
C        -10.66160      -19.90290        4.32310
C        -10.42850      -22.29720       -2.68830
C         -9.39700      -22.38760       -3.55750
C         -9.53670      -22.74050       -4.94100
C        -10.57000      -23.38750       -5.57150
C        -10.35700      -23.58520       -6.95780
C         -9.14540      -23.04900       -7.38170
S         -8.27190      -22.34350       -6.06490
C         -8.61130      -22.98320       -8.68730
C         -9.08360      -23.56840       -9.85760
C        -10.26540      -24.40910      -10.07040
O        -10.49320      -24.91550      -11.15110
N        -11.18460      -24.63300       -9.05660
C        -11.38010      -24.30210       -7.72380
O        -12.42000      -24.66050       -7.20770
C         -8.26780      -23.26210      -10.97270
C         -7.20610      -22.44240      -10.67370
S         -7.17930      -22.05600       -8.97940
C         -6.22970      -21.87050      -11.55220
C         -6.05870      -22.23970      -12.84330
C         -5.15040      -21.60990      -13.76010
C         -4.45520      -20.37280      -13.55800
C         -3.73440      -20.06950      -14.70920
C         -2.93950      -18.95340      -15.04590
C         -2.37610      -18.92610      -16.30280
C         -1.57270      -17.94470      -16.96220
C         -1.26850      -18.40560      -18.24020
C         -1.87040      -19.69560      -18.40160
C         -2.56350      -20.01940      -17.23880
C         -3.36280      -21.13240      -16.90460
C         -3.95190      -21.14510      -15.65880
C         -4.83990      -22.07470      -15.03550
C         -0.52610      -17.73970      -19.27550
C         -0.20280      -16.42560      -19.26200
C          0.49060      -15.75930      -20.32420
C          1.15860      -16.29520      -21.39810
C          1.69620      -15.32560      -22.27810
C          1.41560      -14.02760      -21.86100
S          0.52080      -14.02180      -20.37910
C          1.71640      -12.80430      -22.49740
C          2.41700      -12.57780      -23.67870
C          3.07620      -13.53380      -24.57310
O          3.69380      -13.16030      -25.55080
N          3.01640      -14.89990      -24.34400
C          2.44320      -15.79110      -23.44930
O          2.59860      -16.97640      -23.66850
C          2.46470      -11.20470      -24.01480
C          1.81180      -10.39060      -23.11940
S          1.13600      -11.32210      -21.81660
C          1.60740       -8.97470      -23.15890
C          2.04930       -8.16820      -24.15370
C          1.79770       -6.75780      -24.23920
C          2.26020       -5.93440      -25.31400
C          1.81160       -4.63100      -25.11060
C          1.97380       -3.45480      -25.87150
C          1.37630       -2.30450      -25.40460
C          1.33210       -0.97310      -25.92690
C          0.57660       -0.18100      -25.07010
C          0.13170       -0.99730      -23.98710
C          0.61000       -2.29640      -24.17440
C          0.45270       -3.46710      -23.41030
C          1.04870       -4.62220      -23.87800
C          1.06490       -5.95310      -23.36570
C          0.29690        1.22750      -25.26500
C         -0.44010        1.98620      -24.45380
H         -8.21860        6.22260       18.94150
H         -9.38390        7.44230       16.91840
H        -11.51200        5.70930       13.22580
H        -11.37500        1.13300       13.37110
H         -9.77630       -1.34890       16.00250
H        -11.33740       -1.15640       13.35660
H        -11.82710       -3.48770       12.23930
H        -11.81300       -6.35810       11.73620
H        -11.34630       -9.20720       11.81400
H         -9.20150       -9.35520       15.58200
H         -9.29520       -6.49550       16.13000
H         -9.65480       -3.63400       15.99190
H         -9.42240      -11.64610       14.31830
H        -10.93190      -11.46020       11.64190
H         -8.93090      -13.85830       14.06540
H         -7.39660      -18.13220       13.49440
H         -8.44780      -19.58630        9.27580
H        -10.88060      -18.17190        6.54320
H         -8.35420      -19.88380        6.93150
H         -7.47740      -20.84430        4.61340
H         -7.46050      -21.73960        1.84240
H         -8.11840      -22.35060       -0.90570
H        -12.32080      -21.29220       -0.75800
H        -12.31860      -20.31480        1.99180
H        -11.59270      -19.47850        4.66980
H        -11.44480      -22.45760       -3.03710
H         -8.39050      -22.14450       -3.23000
H        -11.46040      -23.74810       -5.07610
H        -11.96580      -25.18200       -9.40280
H         -8.49990      -23.62920      -11.96240
H         -5.60900      -21.08890      -11.12470
H         -6.64030      -23.06360      -13.24760
H         -4.50600      -19.76470      -12.66650
H         -2.79630      -18.14380      -14.33780
H         -1.25730      -17.01010      -16.52290
H         -1.80430      -20.29850      -19.29580
H         -3.51380      -21.93750      -17.61590
H         -5.20810      -22.98390      -15.48680
H         -0.26230      -18.34890      -20.13550
H         -0.51510      -15.80000      -18.43110
H          1.28760      -17.35370      -21.57450
H          3.51010      -15.40280      -25.07540
H          2.96810      -10.85820      -24.90630
H          1.03700       -8.55570      -22.33540
H          2.62340       -8.59330      -24.97240
H          2.85620       -6.28290      -26.14520
H          2.54610       -3.46750      -26.79320
H          1.80860       -0.64740      -26.83980
H         -0.47680       -0.66470      -23.15880
H         -0.12250       -3.45560      -22.49030
H          0.57830       -6.26870      -22.45480
H          0.73820        1.66590      -26.15680
H         -0.90380        1.60310      -23.55460
H         -0.61070        3.03350      -24.66100
