170
365_75_01010101.out	Energy:   -7827.5812343
C          6.57720        4.21210        0.59730
C          7.71560        4.00850       -0.10650
C          8.36890        2.78260        0.22710
C          7.67070        2.07900        1.19810
S          6.24110        2.92190        1.68780
C          7.97520        0.83090        1.78520
C          9.10070        0.03160        1.61360
C         10.25070        0.21870        0.72800
O         11.16010       -0.58550        0.68740
N         10.33500        1.31020       -0.12900
C          9.58160        2.41120       -0.49300
O          9.97670        3.06420       -1.44830
C          9.05610       -1.12450        2.42780
C          7.91920       -1.21670        3.19490
S          6.86570        0.13580        2.91490
C          7.59870       -2.24580        4.13170
C          6.41550       -2.32110        4.78810
C          6.06040       -3.31670        5.76030
C          5.24560       -3.13970        6.87400
C          5.21620       -4.36410        7.64350
C          6.01430       -5.27390        7.03630
C          6.52220       -4.70000        5.80180
C          7.10790       -5.47040        4.81790
C          7.28910       -5.13450        3.39470
C          7.87440       -6.17780        2.77550
C          8.10690       -7.22220        3.77470
C          7.60960       -6.80150        4.98100
N          8.67550       -8.41920        3.47430
N          4.51340       -2.05790        7.32470
C          4.59420       -0.75170        6.95180
C          5.65930       -0.00720        6.50610
C          5.28590        1.30270        6.11390
C          3.93540        1.56020        6.32610
S          3.14110        0.19610        7.05050
C          3.14810        2.64760        5.90430
C          3.48500        3.67230        5.02080
C          4.78640        4.00220        4.46670
O          4.92450        4.88480        3.62610
N          5.93940        3.36130        4.88860
C          6.30050        2.18490        5.53780
O          7.48290        1.90730        5.56370
C          2.34400        4.42120        4.62570
C          1.17790        4.00060        5.20720
S          1.45920        2.66310        6.28370
C         -0.15410        4.44230        4.90350
C         -1.25570        4.16240        5.62560
C         -2.58460        4.42840        5.08540
C         -3.01350        3.94050        3.86740
C         -4.33650        4.45440        3.57480
C         -4.71780        5.23060        4.61730
C         -3.64560        5.26260        5.60600
C         -3.65750        6.01050        6.76150
C         -2.55300        6.13310        7.72740
C         -2.94010        6.95330        8.72110
C         -4.30870        7.39380        8.43310
C         -4.72450        6.82310        7.25740
N         -5.01170        8.20430        9.26440
N         -2.35000        3.01120        3.07760
C         -1.59310        2.00660        3.61070
C         -1.77400        1.37230        4.81270
C         -0.79770        0.37630        5.06820
C          0.13790        0.27500        4.04260
S         -0.19920        1.40690        2.76670
C          1.24630       -0.58230        3.92170
C          1.67790       -1.58970        4.78450
C          1.17150       -1.94950        6.10510
O          1.76600       -2.74720        6.81900
N          0.02070       -1.38570        6.62310
C         -0.88440       -0.37410        6.31960
O         -1.74240       -0.13570        7.14670
C          2.81820       -2.26350        4.28310
C          3.27490       -1.77040        3.08290
S          2.28560       -0.44350        2.53890
C          4.34370       -2.29330        2.30070
C          4.84200       -1.70840        1.17550
C          5.79960       -2.31090        0.30610
C          6.16910       -3.66080        0.26290
C          7.39950       -3.79580       -0.47420
C          7.75670       -2.56980       -0.93730
C          6.74240       -1.60340       -0.55770
C          6.67580       -0.33930       -1.10820
C          5.53520        0.59700       -1.08420
C          5.83840        1.66820       -1.83920
C          7.20090        1.49090       -2.35210
C          7.67690        0.27490       -1.92390
N          7.81800        2.40280       -3.13920
N          5.47360       -4.76990        0.70080
C          4.10740       -4.88500        0.74210
C          3.38120       -5.87290        1.35480
C          1.97970       -5.64940        1.28330
C          1.67000       -4.47870        0.60210
S          3.08840       -3.70250       -0.01710
C          0.45370       -3.77380        0.52590
C         -0.79730       -4.11280        1.02560
C         -1.21950       -5.36970        1.64450
O         -2.38010       -5.57360        1.94220
N         -0.30650       -6.38330        1.91960
C          1.06530       -6.60230        1.91230
O          1.47120       -7.62770        2.42480
C         -1.72520       -3.04920        0.89390
C         -1.19160       -1.91650        0.32460
S          0.47290       -2.16610       -0.11930
C         -1.80890       -0.63620        0.17570
C         -1.11610        0.47310       -0.19190
C         -1.62790        1.80840       -0.25920
C         -2.96090        2.16830       -0.44830
C         -3.08900        3.60410       -0.37820
C         -1.85530        4.12750       -0.16460
C         -0.87820        3.04840       -0.07770
C          0.44490        3.28780        0.23790
C          1.53750        2.31590        0.44810
C          2.63030        2.97370        0.87510
C          2.30210        4.40120        0.94270
C          1.00400        4.57380        0.53040
N          3.18830        5.34930        1.32610
N         -4.02480        1.34550       -0.68500
H          5.90670        5.05340        0.54060
H          8.11680        4.68700       -0.84600
H         11.16800        1.24010       -0.70530
H          9.85040       -1.85720        2.43100
H          8.38250       -2.97300        4.31860
H          5.67920       -1.54420        4.60500
H          4.65230       -4.48550        8.55600
H          6.18590       -6.29130        7.35080
H          6.93480       -4.23030        2.92840
H          8.13850       -6.26840        1.73200
H          7.64630       -7.34840        5.90890
H          9.20960       -8.49190        2.62640
H          8.95990       -9.00880        4.23750
H          3.63550       -2.32220        7.76240
H          6.67440       -0.36480        6.42460
H          6.75510        3.77950        4.44990
H          2.40720        5.23880        3.92180
H         -0.25240        4.99680        3.97340
H         -1.17020        3.66530        6.58840
H         -4.89870        4.21400        2.68530
H         -5.65140        5.76170        4.72060
H         -1.59520        5.64970        7.61940
H         -2.37580        7.26260        9.58800
H         -5.68750        6.94960        6.79020
H         -4.51550        8.70920        9.97700
H         -5.86510        8.61220        8.92500
H         -2.38410        3.11710        2.07300
H         -2.58600        1.57480        5.49490
H         -0.18530       -1.77370        7.53880
H          3.27690       -3.08870        4.80890
H          4.73370       -3.24830        2.63680
H          4.50730       -0.70250        0.94880
H          7.90820       -4.73400       -0.63870
H          8.61130       -2.34350       -1.55520
H          4.59320        0.41750       -0.59290
H          5.21930        2.52760       -2.04840
H          8.65210       -0.13270       -2.13310
H          7.43970        3.33550       -3.14540
H          8.82540        2.35870       -3.18970
H          5.99710       -5.63170        0.77810
H          3.80890       -6.71570        1.87810
H         -0.77910       -7.15880        2.37490
H         -2.74330       -3.12950        1.24770
H         -2.84780       -0.57860        0.48410
H         -0.06060        0.34460       -0.40970
H         -4.01920        4.13970       -0.49510
H         -1.61630        5.17510       -0.07010
H          1.46300        1.25200        0.29720
H          3.59530        2.56140        1.13150
H          0.48140        5.51490        0.47880
H          3.95850        5.07270        1.91860
H          2.83280        6.27610        1.49280
H         -3.81810        0.43350       -1.05870
H         -4.85140        1.78230       -1.05860
