114
556_642_01010101.out	Energy:   -4254.9063398
C          0.58760      -10.86290      -10.43580
O          0.01530      -11.55460       -9.44560
C          0.52220      -11.10210       -8.26010
C          1.44430      -10.09140       -8.52300
C          1.47680       -9.94680       -9.92490
C          2.30760       -8.99040      -10.71270
F          2.06000       -9.11630      -12.02410
F          2.05860       -7.71940      -10.37860
F          3.61670       -9.19780      -10.53140
C          0.09320      -11.65140       -7.03990
C         -0.86420      -12.68130       -6.80650
C         -1.63680      -13.43530       -7.69680
C         -2.50370      -14.38610       -7.18600
C         -2.61430      -14.59870       -5.80930
C         -1.85680      -13.86030       -4.90860
C         -0.98110      -12.90070       -5.39930
C         -0.08970      -12.00140       -4.70040
C          0.61090      -11.19470       -5.73910
O          1.44420      -10.32670       -5.55750
C          0.06250      -11.90190       -3.34750
C          0.93200      -11.00730       -2.67910
C          0.96450      -10.97270       -1.30930
O          0.16490      -11.79300       -0.58010
C          0.33790      -11.56200        0.74620
C          1.32650      -10.53280        0.88010
C          1.71040      -10.17300       -0.37990
C          2.71340       -9.13110       -0.75520
F          2.14870       -8.13850       -1.45280
F          3.27950       -8.59260        0.32850
F          3.69040       -9.64230       -1.51260
C         -0.41450      -12.27350        1.64990
C         -0.45910      -12.19870        3.09250
C          0.27590      -11.43820        3.99810
C          0.01710      -11.56490        5.35650
C         -0.96250      -12.43820        5.82240
C         -1.70500      -13.20580        4.93540
C         -1.45730      -13.09010        3.57240
C         -2.07780      -13.77780        2.45940
C         -1.41570      -13.28850        1.21940
O         -1.65440      -13.63830        0.08540
C         -3.10040      -14.68100        2.52220
C         -3.65660      -15.35540        1.40870
C         -4.73010      -16.19530        1.51990
O         -5.36920      -16.40960        2.70700
C         -6.41030      -17.26740        2.50750
C         -6.43130      -17.63710        1.12440
C         -5.40530      -16.97550        0.51880
C         -5.00700      -17.01990       -0.92030
F         -3.74040      -17.43540       -1.06170
F         -5.78380      -17.84390       -1.62240
F         -5.08470      -15.80750       -1.48620
C         -7.25750      -17.62710        3.52160
C         -7.25230      -17.20160        4.90280
C         -6.38050      -16.36220        5.58850
C         -6.61710      -16.11130        6.93380
C         -7.70410      -16.68470        7.58990
C         -8.58280      -17.52410        6.91620
C         -8.36050      -17.78590        5.56950
C         -9.10880      -18.61190        4.64020
C         -8.41210      -18.53570        3.33190
O         -8.71900      -19.09200        2.29670
C        -10.25880      -19.29980        4.90640
C        -10.96300      -20.10440        3.97970
C        -12.14980      -20.70720        4.29620
O        -12.74050      -20.54820        5.51610
C        -13.91950      -21.23500        5.53690
C        -14.08770      -21.87890        4.26900
C        -13.00430      -21.55460        3.50930
C        -12.70900      -21.97640        2.10640
F        -12.63300      -20.92040        1.28670
F        -11.53590      -22.61860        2.03010
F        -13.64970      -22.79240        1.63110
C        -14.74450      -21.23450        6.62780
C        -14.58350      -20.57130        7.89500
C        -13.54800      -19.76960        8.35920
C        -13.63290      -19.23750        9.63860
C        -14.74060      -19.50060       10.44760
C        -15.78210      -20.29660       10.00280
C        -15.72600      -20.85070        8.71710
C        -16.62820      -21.69200        8.00090
C        -16.04370      -21.95750        6.67730
O        -16.52580      -22.63520        5.78860
C        -17.88540      -22.26480        8.32260
C        -18.59400      -22.14910        9.46390
H          0.29560      -11.09810      -11.44630
H          2.01100       -9.53850       -7.79380
H         -1.55820      -13.27780       -8.76520
H         -3.10920      -14.97760       -7.86370
H         -3.30210      -15.35070       -5.44000
H         -1.95240      -14.03420       -3.84300
H         -0.53480      -12.55340       -2.71290
H          1.57280      -10.33450       -3.23410
H          1.69530      -10.12040        1.80370
H          1.04550      -10.75350        3.66360
H          0.58790      -10.97470        6.06450
H         -1.14490      -12.51960        6.88790
H         -2.46500      -13.88540        5.30440
H         -3.53160      -14.91280        3.49390
H         -3.23100      -15.21800        0.42290
H         -7.14440      -18.31080        0.67810
H         -5.53310      -15.91160        5.08660
H         -5.94660      -15.45920        7.48240
H         -7.86640      -16.47250        8.64070
H         -9.42560      -17.96430        7.43720
H        -10.68270      -19.22880        5.90590
H        -10.57030      -20.25690        2.98250
H        -14.92980      -22.49600        4.00110
H        -12.68750      -19.56190        7.73500
H        -12.83270      -18.61030       10.01510
H        -14.78480      -19.07210       11.44280
H        -16.62640      -20.48020       10.65460
H        -18.30130      -22.86960        7.51780
H        -18.26660      -21.57280       10.31640
H        -19.54780      -22.64580        9.57260
