138
563_35_01010101.out	Energy:   -4096.3978902
C         -0.02990       -0.25950       15.69790
C          0.80850       -0.08580       14.60040
N          2.16310        0.13570       14.53970
C          2.49830        0.23980       13.22180
N          1.46560        0.10260       12.43900
C          0.37850       -0.10540       13.24920
C         -0.97630       -0.31190       12.89330
C         -1.82700       -0.48550       14.01200
C         -1.36150       -0.45890       15.34770
N         -2.48150       -0.66270       16.11740
C         -3.53850       -0.79940       15.26440
N         -3.18280       -0.69940       14.01420
C         -1.51020       -0.34840       11.58310
C         -0.77740       -0.21540       10.41700
C         -1.26120       -0.21570        9.11350
C         -2.58720       -0.20840        8.55760
C         -3.83660       -0.03240        9.15220
C         -4.96470        0.08360        8.35280
C         -4.85450        0.08080        6.96490
C         -3.61910       -0.08880        6.35090
C         -2.48520       -0.29020        7.13510
C         -1.08980       -0.38900        6.74820
C         -0.30850       -0.20560        7.98550
O          0.90980       -0.12110        8.11390
C         -0.59210       -0.70870        5.48560
C          0.71010       -0.37920        4.98720
N          1.73570        0.26620        5.61750
C          2.72500        0.45170        4.72030
N          2.39350       -0.00460        3.53440
C          1.14290       -0.53690        3.65990
C          0.34910       -1.17030        2.64550
C         -0.89770       -1.65110        3.17100
C         -1.32960       -1.41970        4.48020
N         -2.50750       -2.11680        4.58520
C         -2.75000       -2.70160        3.38420
N         -1.80800       -2.43260        2.51770
C          0.68210       -1.36070        1.31920
C          1.88070       -0.90750        0.72840
C          2.24700       -1.06740       -0.58110
C          3.48720       -0.60260       -1.16760
C          4.60700       -0.04820       -0.56030
C          5.73630        0.20150       -1.33000
C          5.76160       -0.14470       -2.67780
C          4.64500       -0.69330       -3.29820
C          3.47590       -0.87660       -2.55980
C          2.21220       -1.49710       -2.91890
C          1.48150       -1.73640       -1.66050
O          0.41610       -2.32400       -1.51640
C          1.72550       -1.70920       -4.20920
C          0.76060       -2.68830       -4.60100
N          0.07640       -3.60280       -3.85050
C         -0.62200       -4.39280       -4.69490
N         -0.40990       -4.07100       -5.94990
C          0.44230       -3.00800       -5.93060
C          0.95240       -2.30530       -7.07190
C          1.78930       -1.20240       -6.68710
C          2.14930       -0.95610       -5.35750
N          2.86590        0.21360       -5.39910
C          2.93650        0.61150       -6.69260
N          2.30980       -0.22030       -7.48460
C          0.62820       -2.69840       -8.35480
C          1.06040       -2.04120       -9.52660
C          0.82730       -2.45420      -10.81130
C          1.28230       -1.78090      -12.01000
C          2.09930       -0.66590      -12.14930
C          2.50090       -0.27940      -13.42180
C          2.13080       -1.02860      -14.53490
C          1.30860       -2.14220      -14.40900
C          0.82900       -2.49830      -13.14840
C          0.04140       -3.64030      -12.71780
C          0.11970       -3.68190      -11.24770
O         -0.34380       -4.53480      -10.49830
C         -0.72240       -4.47930      -13.53390
C         -1.08410       -5.83440      -13.24690
N         -0.82530       -6.58300      -12.13370
C         -1.25450       -7.84010      -12.36740
N         -1.74690       -7.96600      -13.57800
C         -1.66500       -6.73390      -14.15890
C         -2.08460       -6.35300      -15.47590
C         -1.88690       -4.95220      -15.71370
C         -1.24020       -4.09790      -14.81480
N         -1.34030       -2.85340      -15.38600
C         -1.99540       -2.99320      -16.56730
N         -2.32480       -4.23850      -16.79230
C         -2.63900       -7.16390      -16.44810
C         -2.85260       -8.55060      -16.31150
C         -3.37740       -9.36370      -17.28120
C         -3.58990      -10.77880      -17.17950
C         -3.34000      -11.67010      -16.14000
C         -3.64270      -13.01080      -16.31470
C         -4.19570      -13.48080      -17.51930
C         -4.45500      -12.62680      -18.56610
C         -4.15620      -11.25400      -18.41930
C         -4.30910      -10.18840      -19.30030
C         -3.84070       -8.96650      -18.66170
O         -3.82240       -7.84790      -19.14000
H          0.32070       -0.23990       16.72120
H          2.78990        0.20840       15.32270
H          3.51000        0.41660       12.89470
H         -2.51550       -0.70510       17.12150
H         -4.54360       -0.96970       15.61500
H         -2.58200       -0.51140       11.53690
H          0.30360       -0.12110       10.50200
H         -3.94100        0.04200       10.22700
H         -5.93720        0.21560        8.81360
H         -5.73820        0.23020        6.35460
H         -3.54690       -0.01920        5.27180
H          1.75750        0.41850        6.62460
H          3.66220        0.92440        4.96390
H         -3.06160       -2.21690        5.42050
H         -3.61900       -3.31050        3.19650
H         -0.04050       -1.88680        0.70370
H          2.57010       -0.36650        1.37240
H          4.61100        0.17130        0.50140
H          6.61630        0.63760       -0.87070
H          6.66920        0.00410       -3.25250
H          4.70990       -1.00690       -4.33360
H          0.02190       -3.56610       -2.83680
H         -1.26470       -5.18930       -4.35820
H          3.23370        0.70680       -4.60110
H          3.44880        1.50690       -7.00350
H         -0.00110       -3.57750       -8.44850
H          1.62390       -1.12050       -9.39490
H          2.43530       -0.11240      -11.27970
H          3.13470        0.59140      -13.54640
H          2.49790       -0.74770      -15.51600
H          1.08520       -2.74010      -15.28460
H         -0.50440       -6.18110      -11.25610
H         -1.18650       -8.63140      -11.63920
H         -1.03100       -1.98780      -14.97430
H         -2.20740       -2.16160      -17.21880
H         -2.91210       -6.68440      -17.38290
H         -2.57010       -9.00760      -15.36560
H         -2.91340      -11.32470      -15.20480
H         -3.45170      -13.71470      -15.51250
H         -4.41860      -14.53800      -17.61560
H         -4.88120      -12.99280      -19.49320
H         -4.70590      -10.22960      -20.30240
