202
630_411_01010101.out	Energy:   -5646.2447831
C         12.70980       -4.82000        7.17900
C         11.44170       -5.23910        7.01740
C         10.90500       -4.61040        5.80330
C         12.00220       -3.77180        5.28300
C         13.05340       -3.91310        6.10940
C         12.02040       -2.93020        4.14590
N         12.04530       -2.23430        3.21850
C          9.66350       -4.79310        5.30200
C          9.14210       -4.18390        4.07940
C          7.86240       -4.57330        3.89750
C          7.52380       -5.48950        4.97760
C          8.56490       -5.62020        5.81780
C          8.53230       -6.42630        6.97550
N          8.49200       -7.09420        7.93020
C          7.04050       -4.21050        2.76380
C          7.16210       -3.04740        2.10150
C          6.36080       -2.63470        0.89220
C          7.19290       -1.72540        0.00810
O          8.34460       -1.92170       -0.34420
O          6.46430       -0.63870       -0.37290
C          5.12050       -0.72490        0.12510
C          5.16390       -1.75530        1.24380
C          3.87230       -2.53880        1.50720
C          2.98610       -2.78630        0.29220
C          2.84700       -1.61540       -0.66630
C          4.17800       -1.01190       -1.05000
O          3.81650        0.22960       -1.67830
C          2.61780        0.66910       -1.18360
O          2.15300        1.77460       -1.41120
C          1.98480       -0.40020       -0.30610
C          1.92450        0.10660        1.11340
C          0.79080        0.56300        1.67450
C          0.70830        1.10190        3.00880
C          1.08230        0.42990        4.11780
C          0.83250        1.27480        5.28800
C          0.20170        2.49740        4.76240
C          0.14390        2.37920        3.42430
C         -0.31980        3.60460        5.47570
N         -0.75620        4.50320        6.06430
C          1.17520        0.96950        6.55730
C          1.02470        1.85810        7.70290
C          1.60330        1.29230        8.78100
C          2.06160       -0.03550        8.39130
C          1.81540       -0.24200        7.08520
C          2.11560       -1.44720        6.40960
N          2.36210       -2.43370        5.84860
C          1.64860        1.89700       10.09220
C          1.67180        3.22640       10.29640
C          1.75040        3.97550       11.60010
C          3.06030        4.74310       11.68920
O          3.61050        5.34710       10.78280
O          3.52870        4.70950       12.97420
C          2.56480        4.06920       13.82620
C          1.78940        3.16200       12.89030
C          0.43370        2.70680       13.42500
C         -0.37930        3.79710       14.11820
C          0.40440        4.68790       15.07690
C          1.73790        5.15130       14.53390
O          2.45220        5.61430       15.68950
C          1.97500        5.00020       16.81350
O          2.51320        5.07400       17.90630
C          0.73340        4.18670       16.48480
C          1.02600        2.72380       16.69760
C          0.08150        1.85260       17.08670
C          0.30560        0.45710       17.37660
C         -0.69250       -0.45420       17.38790
C         -0.14950       -1.75710       17.78980
C          1.27450       -1.50950       18.06730
C          1.52210       -0.21160       17.81670
C          2.25840       -2.41160       18.53230
N          3.06890       -3.14930       18.91590
C         -0.84320       -2.91540       17.86260
C         -0.29920       -4.21420       18.26770
C         -1.25640       -5.15650       18.14100
C         -2.47730       -4.48940       17.70780
C         -2.25540       -3.17280       17.54470
C         -3.25690       -2.25750       17.14510
N         -4.08060       -1.50870       16.81500
C         -1.04200       -6.54380       18.49100
C         -1.66640       -7.58230       17.90970
C         -1.37080       -9.03240       18.21950
C         -0.88160       -9.77460       16.98610
O         -0.10700       -9.35360       16.14340
O         -1.41120      -11.03560       16.96360
C         -2.22090      -11.25500       18.13020
C         -2.60400       -9.85680       18.59060
C         -3.04750       -9.75790       20.04980
C         -2.23820      -10.60430       21.02860
C         -1.92590      -12.02280       20.56720
C         -1.42750      -12.09920       19.14040
O         -1.54910      -13.49110       18.80390
C         -2.50840      -14.08230       19.58060
O         -2.92160      -15.21700       19.40360
C         -3.00360      -13.10890       20.63590
C         -4.43240      -12.75230       20.32240
C         -5.44720      -12.98140       21.16940
C         -6.81980      -12.66190       20.87480
C         -7.66810      -12.18400       21.80790
C         -8.98610      -11.99380       21.19560
C         -8.84600      -12.47270       19.81190
C         -7.56820      -12.85670       19.64090
C         -9.82500      -12.53950       18.78870
N        -10.62420      -12.58690       17.94790
C        -10.06520      -11.46970       21.81520
C        -11.39320      -11.31490       21.22410
C        -12.21100      -10.76210       22.14000
C        -11.44170      -10.51040       23.34820
C        -10.17880      -10.93710       23.18170
C         -9.18640      -10.84090       24.18870
N         -8.37960      -10.77020       25.01510
C        -13.60590      -10.51430       21.89580
C        -14.57590      -10.99910       22.68670
C        -16.04180      -10.76790       22.43850
C        -16.56800       -9.56420       23.19080
O        -16.00230       -8.49180       23.32680
O        -17.82640       -9.82940       23.65630
C        -18.24010      -11.15110       23.25780
C        -16.93700      -11.88290       22.97660
C        -17.02310      -13.10070       22.05720
C        -18.02660      -12.98080       20.91530
C        -19.34850      -12.30140       21.24610
C        -19.20300      -11.03950       22.06900
O        -20.53180      -10.77610       22.54520
C        -21.27360      -11.92670       22.54090
O        -22.41430      -11.99720       22.97000
C        -20.46740      -13.07410       21.95130
C        -20.13270      -14.06220       23.03810
C        -20.91310      -15.11150       23.33650
H         13.33850       -5.10250        7.94720
H         10.93440       -5.88890        7.63820
H         13.96610       -3.44490        5.99650
H          9.66950       -3.55500        3.45390
H          6.61600       -5.96890        5.08280
H          6.32250       -4.88050        2.44670
H          7.86540       -2.37800        2.45110
H          6.05960       -3.55370        0.43430
H          4.72850        0.17620        0.54840
H          5.26710       -1.26670        2.19010
H          3.29820       -1.99280        2.22640
H          4.18300       -3.50650        1.84170
H          2.00840       -3.04200        0.64400
H          3.46230       -3.56620       -0.26450
H          2.33000       -2.14700       -1.43780
H          4.72320       -1.69790       -1.66410
H          0.95890       -0.66930       -0.44740
H          2.78890        0.10300        1.67710
H         -0.07510        0.52500        1.11430
H          1.47900       -0.52260        4.13800
H         -0.24390        3.09000        2.78450
H          0.55060        2.77460        7.69060
H          2.50900       -0.71670        9.02440
H          1.66390        1.27590       10.91630
H          1.63030        3.81040        9.44660
H          0.84590        4.54560       11.55850
H          2.96870        3.48100       14.62360
H          2.25050        2.20660       12.75080
H          0.60100        1.91800       14.12850
H         -0.13800        2.39920       12.57440
H         -1.16180        3.32310       14.67310
H         -0.73310        4.44080       13.34020
H         -0.33560        5.45600       15.16260
H          1.57160        5.89110       13.77900
H         -0.13500        4.30480       17.09870
H          1.98590        2.37960       16.53870
H         -0.88170        2.20960       17.18630
H         -1.67900       -0.26410       17.15160
H          2.44180        0.24470       17.92120
H          0.66410       -4.38170       18.59790
H         -3.38210       -4.95960       17.54890
H         -0.36210       -6.75040       19.23940
H         -2.39390       -7.37690       17.20710
H         -0.66570       -8.96170       19.02130
H         -3.11550      -11.81990       17.97030
H         -3.49170       -9.49230       18.11740
H         -4.06960      -10.06920       20.10790
H         -2.89680       -8.73900       20.33980
H         -2.79020      -10.66910       21.94290
H         -1.29280      -10.11350       21.12920
H         -1.19510      -12.23870       21.31830
H         -0.43420      -11.70540       19.08550
H         -3.08990      -13.43550       21.65120
H         -4.64100      -12.31100       19.41320
H         -5.23200      -13.41060       22.08290
H         -7.42850      -11.98500       22.79180
H         -7.17590      -13.23400       18.76410
H        -11.65970      -11.58450       20.26420
H        -11.81080      -10.06980       24.20530
H        -13.87200       -9.94090       21.08010
H        -14.30180      -11.55990       23.50850
H        -16.08450      -10.67520       21.37340
H        -18.79450      -11.69750       23.99190
H        -16.56150      -12.35810       23.85870
H        -17.29800      -13.94630       22.65230
H        -16.06090      -13.19610       21.59880
H        -18.24590      -13.96920       20.56920
H        -17.55700      -12.35150       20.18830
H        -19.65030      -12.15050       20.23070
H        -18.78050      -10.26380       21.46510
H        -20.92830      -13.73150       21.24400
H        -19.26350      -13.92560       23.57740
H        -21.78750      -15.27000       22.81180
H        -20.63920      -15.76030       24.09090
