146
630_1203_01010101.out	Energy:   -7263.3186834
C         -3.79190        0.54820      -11.47530
C         -5.11470        0.80850      -11.58770
C         -5.48190        1.80230      -10.59250
C         -4.23480        2.11340       -9.86380
C         -3.23870        1.35640      -10.40430
C         -4.10000        3.02680       -8.80080
N         -3.97330        3.77120       -7.92890
C         -6.71790        2.34310      -10.36870
C         -7.07490        3.32880       -9.38500
C         -8.41810        3.60660       -9.48550
C         -8.96820        2.78380      -10.56350
C         -7.97110        2.03100      -11.09470
C         -8.11080        1.11090      -12.15460
N         -8.25090        0.36480      -13.02170
C         -9.13630        4.53420       -8.67680
C        -10.46650        4.79350       -8.78390
C        -11.16320        5.72180       -7.96660
S        -10.41930        6.67480       -6.71240
C        -12.51040        6.02230       -8.02510
C        -13.63950        5.59430       -8.85700
O        -13.67940        4.80340       -9.75250
N        -14.72790        6.35350       -8.35580
C        -16.06740        6.34110       -8.86680
F        -16.21680        5.41420       -9.79200
F        -16.92760        6.10010       -7.88440
F        -16.36500        7.52320       -9.40100
C        -14.37090        7.23860       -7.30030
O        -15.12640        7.99660       -6.77010
C        -12.93800        6.98800       -7.08870
C        -11.91820        7.45920       -6.28040
C        -11.94220        8.42020       -5.23150
C        -13.03350        9.02410       -4.64560
C        -12.57450        9.92940       -3.63310
C        -11.09790        9.84600       -3.64430
C        -10.73740        8.93460       -4.58490
C        -10.21130       10.55990       -2.81190
N         -9.46200       11.12640       -2.14430
C        -13.33780       10.71630       -2.80140
C        -12.87610       11.68290       -1.85260
C        -13.96070       12.26750       -1.23230
C        -15.17240       11.65200       -1.77780
C        -14.81630       10.73330       -2.71150
C        -15.71080        9.90330       -3.42060
N        -16.47240        9.22260       -3.95320
C        -13.89270       13.28530       -0.24150
C        -14.98240       13.84370        0.35710
C        -14.95160       14.86470        1.34490
S        -16.46830       15.43200        1.98420
C        -13.91340       15.56110        1.94720
C        -12.44750       15.57910        1.88240
O        -11.67430       14.91120        1.25920
N        -12.07120       16.61560        2.77500
C        -10.69310       16.88370        3.07200
F         -9.97490       16.86650        1.95970
F        -10.55410       18.06670        3.63980
F        -10.20900       15.95780        3.89910
C        -13.16360       17.18730        3.47300
O        -13.06850       18.01570        4.33030
C        -14.34290       16.52240        2.89640
C        -15.71800       16.58920        3.04830
C        -16.54000       17.40770        3.87310
C        -17.91780       17.36410        3.91680
C        -18.39210       18.34210        4.84650
C        -17.18510       19.00230        5.38790
C        -16.09290       18.43980        4.80590
C        -17.17170       20.03640        6.34640
N        -17.15560       20.88030        7.13150
C        -19.70070       18.62560        5.16880
C        -20.17580       19.62470        6.07320
C        -21.55510       19.59290        6.10200
C        -21.99670       18.53420        5.19370
C        -20.90650       17.95360        4.62970
C        -20.91530       16.89600        3.69770
N        -20.93250       16.03160        2.93510
C        -22.45630       20.41240        6.83900
C        -22.06020       21.43010        7.65440
C        -22.92270       22.28980        8.38610
S        -22.20240       23.57340        9.31560
C        -24.30250       22.34690        8.52090
C        -25.46370       21.58550        8.04270
O        -25.53370       20.60040        7.36580
N        -26.57780       22.27980        8.57650
C        -27.93190       21.81960        8.45850
F        -28.09540       21.12620        7.34660
F        -28.24910       21.04060        9.49230
F        -28.76560       22.84630        8.43720
C        -26.21990       23.35100        9.43560
O        -27.00040       24.00790       10.05900
C        -24.75290       23.40280        9.35260
C        -23.73450       24.18240        9.87560
C        -23.75980       25.32760       10.72120
C        -22.64940       26.01050       11.16860
C        -23.06890       27.12160       11.96960
C        -24.54600       27.06680       11.99100
C        -24.94540       25.99920       11.25100
C        -25.39460       27.96410       12.67260
N        -26.09880       28.68820       13.22700
C        -22.26730       28.05780       12.58000
C        -22.67250       29.20300       13.33740
C        -21.55500       29.89130       13.75650
C        -20.37670       29.17200       13.26890
C        -20.78570       28.08490       12.56560
C        -19.94220       27.14490       11.93910
N        -19.23380       26.38760       11.43510
C        -21.55900       31.09860       14.51470
C        -20.43540       31.74070       14.93110
C        -20.40820       32.95720       15.67600
S        -18.85700       33.57630       16.18410
C        -21.40550       33.81440       16.10270
C        -22.86800       33.91930       16.02980
O        -23.68400       33.18230       15.55830
N        -23.16450       35.15070       16.67440
C        -24.49480       35.62450       16.92810
F        -25.34890       35.12820       16.05350
F        -24.88740       35.27070       18.15160
F        -24.53120       36.94570       16.84490
C        -22.02930       35.79220       17.23670
O        -22.05230       36.79000       17.88880
C        -20.90500       34.93600       16.82200
C        -19.55060       34.94650       16.95140
H         -3.21290       -0.14230      -12.06970
H         -5.80400        0.36870      -12.28930
H         -2.20340        1.34630      -10.09920
H         -6.38870        3.77430       -8.68330
H        -10.00100        2.78500      -10.87620
H         -8.55760        5.06240       -7.92280
H        -11.07780        4.28400       -9.52330
H        -14.06740        8.85980       -4.90070
H         -9.73410        8.63050       -4.84140
H        -11.84210       11.92700       -1.67070
H        -16.18010       11.89210       -1.47560
H        -12.89650       13.61400        0.03180
H        -15.97620       13.50470        0.08030
H        -18.54310       16.70390        3.33850
H        -15.06410       18.70060        4.99120
H        -19.54040       20.29130        6.63240
H        -23.03050       18.27910        5.01710
H        -23.51100       20.19710        6.71430
H        -21.00030       21.63960        7.76650
H        -21.62570       25.75950       10.94410
H        -25.96120       25.68670       11.07460
H        -23.69470       29.48130       13.53630
H        -19.35310       29.46700       13.44190
H        -22.53590       31.50300       14.75570
H        -19.45990       31.32210       14.70180
H        -18.93100       35.67540       17.44700
