246
630_416_01010101.out	Energy:   -6548.7042109
C         -5.37850       13.29280        2.96760
C         -6.59420       12.71940        2.92170
C         -6.45260       11.40380        2.28870
C         -5.01550       11.27630        1.97290
C         -4.40600       12.40180        2.38330
C         -4.32570       10.20840        1.35420
N         -3.74890        9.33680        0.84620
C         -7.45140       10.52620        2.05920
C         -7.29160        9.22390        1.42910
C         -8.48930        8.60870        1.34830
C         -9.47780        9.50130        1.93710
C         -8.88470       10.63230        2.36060
C         -9.58350       11.69420        2.98330
N        -10.15500       12.55740        3.49270
C         -8.71010        7.29390        0.79080
C         -7.74100        6.52370        0.26980
C         -7.93500        5.13660       -0.27090
C         -7.05720        4.16100        0.53720
C         -7.16870        2.74790       -0.03580
C         -6.72610        2.75070       -1.52180
C         -7.64280        3.68700       -2.32870
C         -7.58880        5.10600       -1.76720
N         -6.68010        1.44070       -2.22860
C         -5.30850        1.17680       -2.72500
C         -4.77560        2.20240       -3.73520
C         -7.22700        0.34370       -1.36520
C         -6.36010        0.06290       -0.10720
S         -6.14510        1.57360        0.93870
C         -6.95020       -1.04380        0.76940
C         -7.18400       -2.31200       -0.04200
C         -8.14280       -2.04590       -1.19440
C         -7.61860       -0.95460       -2.15350
C         -8.68710       -0.70620       -3.19660
C         -9.70680        0.17690       -3.15150
C        -10.46750        0.07990       -4.39390
C         -9.78710       -0.95390       -5.18840
C         -8.74760       -1.40980       -4.46530
C        -10.09760       -1.41410       -6.48810
N        -10.34950       -1.79230       -7.55640
C        -11.55420        0.81940       -4.69510
C        -12.31980        0.73380       -5.93460
C        -13.28660        1.66570       -5.90280
C        -13.23500        2.34870       -4.62170
C        -12.21210        1.86760       -3.90090
C        -11.88860        2.35040       -2.61280
N        -11.62700        2.76040       -1.55870
C        -14.21610        1.85700       -6.97420
C        -14.81700        3.02910       -7.21700
C        -15.75620        3.28710       -8.35740
C        -17.19620        3.02140       -7.89800
C        -18.16800        3.38510       -9.01490
C        -17.82700        2.60450      -10.31720
C        -16.36430        2.79460      -10.76450
C        -15.40400        2.48900       -9.62450
N        -18.81200        2.81090      -11.40340
C        -19.13480        4.23850      -11.67960
C        -17.98230        5.15220      -12.09270
C        -20.08360        2.06120      -11.07450
C        -20.33330        1.75000       -9.55710
S        -19.90900        3.12780       -8.44430
C        -21.76640        1.25730       -9.35010
C        -21.96140       -0.06310      -10.09650
C        -21.56260        0.03000      -11.56960
C        -20.16890        0.67170      -11.80280
C        -19.86790        0.70890      -13.27490
C        -18.85900        0.08720      -13.92080
C        -18.98280        0.38330      -15.35170
C        -20.16030        1.26010      -15.47120
C        -20.67240        1.42830      -14.24190
C        -20.73500        1.83890      -16.62500
N        -21.22420        2.32080      -17.56090
C        -18.17970       -0.08820      -16.32750
C        -18.31120        0.22350      -17.74770
C        -17.35880       -0.44840      -18.41790
C        -16.58220       -1.22660      -17.47880
C        -17.03590       -1.00800      -16.23490
C        -16.45320       -1.60110      -15.09480
N        -15.94730       -2.09620      -14.17570
C        -17.21000       -0.36910      -19.83410
C        -16.07100       -0.01280      -20.44510
C        -15.92140        0.12160      -21.93810
C        -17.25610        0.45980      -22.63140
C        -17.07420        0.57750      -24.13400
C        -16.48180       -0.74310      -24.70620
C        -15.12970       -1.06200      -24.04010
C        -15.29060       -1.15250      -22.51910
N        -16.42810       -0.77010      -26.18950
C        -15.70940        0.41400      -26.72310
C        -15.54570        0.50400      -28.23600
C        -17.81240       -0.92470      -26.74620
C        -18.99000       -0.50940      -25.80080
S        -18.67850        1.05090      -24.91460
C        -20.29970       -0.46370      -26.58710
C        -20.62730       -1.86330      -27.10570
C        -19.47670       -2.47230      -27.90440
C        -18.10520       -2.40670      -27.18160
C        -17.02090       -3.03040      -28.02560
C        -16.93250       -3.11890      -29.36810
C        -15.71750       -3.86220      -29.70860
C        -15.11910       -4.24600      -28.42030
C        -15.89510       -3.74420      -27.44440
C        -13.94560       -4.99310      -28.17350
N        -12.98420       -5.61110      -27.96460
C        -15.27890       -4.10430      -30.96210
C        -14.07280       -4.85390      -31.31410
C        -13.96400       -4.89330      -32.65650
C        -15.06630       -4.13080      -33.22170
C        -15.86530       -3.68070      -32.24160
C        -17.03960       -2.93460      -32.48870
N        -18.00860       -2.33370      -32.70690
C        -12.88240       -5.54520      -33.34600
C        -13.00210       -6.05490      -34.58090
C        -11.87910       -6.74070      -35.30880
C        -11.57810       -6.00070      -36.61940
C        -10.46200       -6.72730      -37.36840
C        -10.87960       -8.18720      -37.73730
C        -11.15410       -8.92400      -36.40200
C        -12.22510       -8.21090      -35.56990
N         -9.93750       -8.88810      -38.65650
C        -10.06400      -10.34100      -38.74270
C        -11.44100      -10.80590      -39.22210
C         -8.58000       -8.30280      -38.65050
C         -8.61270       -6.92560      -39.39330
S         -9.93560       -5.77850      -38.82550
C         -7.26350       -6.20580      -39.28450
C         -6.13620       -7.06640      -39.84770
C         -6.09900       -8.44330      -39.19680
C         -7.45180       -9.15600      -39.27310
H         -5.17340       14.22510        3.35980
H         -7.47310       13.13270        3.27080
H         -3.39680       12.59850        2.29410
H         -6.39770        8.83090        1.09480
H        -10.48600        9.29630        2.01770
H         -9.67330        6.92330        0.79300
H         -6.78720        6.91650        0.23880
H         -8.95730        4.83670       -0.17190
H         -7.38240        4.15530        1.55660
H         -6.03770        4.48060        0.47950
H         -8.18810        2.42830        0.02350
H         -5.70830        3.07740       -1.47320
H         -8.64870        3.32590       -2.27590
H         -7.30930        3.70500       -3.34520
H         -8.28930        5.71620       -2.29800
H         -6.59170        5.47530       -1.88730
H         -4.64750        1.16530       -1.88370
H         -5.35280        0.24180       -3.24330
H         -4.71020        3.16260       -3.26780
H         -5.44030        2.25750       -4.57180
H         -3.80480        1.90180       -4.07020
H         -8.15540        0.72550       -0.99480
H         -5.40960       -0.25210       -0.48440
H         -7.88250       -0.71020        1.17480
H         -6.25850       -1.26310        1.55570
H         -7.60060       -3.06430        0.59470
H         -6.24800       -2.64090       -0.44290
H         -9.08290       -1.72890       -0.79350
H         -8.24200       -2.95270       -1.75350
H         -6.72290       -1.27580       -2.64280
H         -9.91450        0.81550       -2.36790
H         -8.09260       -2.14800       -4.76690
H        -12.14740        0.06950       -6.70530
H        -13.88480        3.08910       -4.31420
H        -14.43310        1.05570       -7.58730
H        -14.61950        3.81090       -6.57300
H        -15.65740        4.31490       -8.63820
H        -17.40920        3.61550       -7.03400
H        -17.30550        1.98450       -7.65740
H        -18.06840        4.42280       -9.25590
H        -17.91450        1.56860      -10.06390
H        -16.22310        3.80730      -11.07960
H        -16.16310        2.12080      -11.57100
H        -14.41050        2.74320       -9.92990
H        -15.47840        1.44660       -9.39470
H        -19.85790        4.25740      -12.46810
H        -19.47160        4.62940      -10.74220
H        -17.58620        4.82450      -13.03110
H        -17.21400        5.11560      -11.34890
H        -18.33960        6.15630      -12.18740
H        -20.82490        2.75490      -11.41260
H        -19.65830        0.96610       -9.28360
H        -22.45270        1.98600       -9.72820
H        -21.94620        1.10810       -8.30590
H        -22.99300       -0.34100      -10.03750
H        -21.32920       -0.79270       -9.63500
H        -22.29500        0.61930      -12.08060
H        -21.51020       -0.97190      -11.94180
H        -19.39590        0.07640      -11.36360
H        -18.12770       -0.49510      -13.48380
H        -21.51190        1.98570      -14.01910
H        -19.01500        0.85210      -18.16570
H        -15.80040       -1.85300      -17.72660
H        -18.02610       -0.59910      -20.42250
H        -15.24600        0.18120      -19.85640
H        -15.26750        0.94640      -22.13040
H        -17.62290        1.38960      -22.24950
H        -17.95250       -0.32790      -22.43290
H        -16.37140        1.35080      -24.36420
H        -17.15770       -1.53320      -24.45360
H        -14.42980       -0.28750      -24.27490
H        -14.77540       -2.00230      -24.40780
H        -14.32700       -1.29540      -22.07640
H        -15.93880       -1.97530      -22.30050
H        -16.24260        1.28520      -26.40430
H        -14.71340        0.32810      -26.34180
H        -16.50850        0.59300      -28.69430
H        -15.05990       -0.37910      -28.59530
H        -14.95370        1.36120      -28.48040
H        -17.79420       -0.24480      -27.57220
H        -19.06940       -1.25780      -25.04030
H        -20.19720        0.20860      -27.41330
H        -21.08890       -0.12430      -25.94920
H        -21.48940       -1.80290      -27.73660
H        -20.80480       -2.49190      -26.25820
H        -19.39430       -1.94500      -28.83180
H        -19.70700       -3.50840      -28.03980
H        -18.13030       -2.99020      -26.28510
H        -17.60830       -2.72800      -30.04300
H        -15.71850       -3.84990      -26.43310
H        -13.41410       -5.28180      -30.64480
H        -15.21260       -3.96080      -34.22910
H        -11.97140       -5.62430      -32.86780
H        -13.91390       -5.97200      -35.05700
H        -11.00090       -6.71690      -34.69780
H        -11.26870       -4.99990      -36.40120
H        -12.45890       -5.97670      -37.22650
H         -9.61790       -6.80300      -36.71510
H        -11.76970       -8.17330      -38.33090
H        -10.24680       -8.96590      -35.83640
H        -11.50970       -9.90680      -36.63090
H        -12.32120       -8.71350      -34.63020
H        -13.14000       -8.23740      -36.12400
H         -9.32630      -10.70530      -39.42680
H         -9.92720      -10.72830      -37.75470
H        -11.61730      -10.43780      -40.21120
H        -12.19430      -10.42960      -38.56200
H        -11.47410      -11.87540      -39.22840
H         -8.33370       -8.22270      -37.61230
H         -8.82970       -7.17880      -40.41000
H         -7.06170       -5.99500      -38.25510
H         -7.31480       -5.29920      -39.85040
H         -5.20270       -6.57410      -39.67100
H         -6.30840       -7.19750      -40.89560
H         -5.82620       -8.33090      -38.16830
H         -5.38430       -9.03780      -39.72660
H         -7.38590      -10.08370      -38.74410
H         -7.68620       -9.31980      -40.30410
