142
630_1118_01010101.out	Energy:   -5323.5075418
C        -33.29000       23.05400        8.34320
C        -31.98080       22.80030        8.51800
C        -31.35530       22.70420        7.19310
C        -32.44910       22.92630        6.22890
C        -33.57650       23.13060        6.92990
C        -32.40020       22.93940        4.81450
N        -32.37650       22.95090        3.65460
C        -30.04960       22.46850        6.95360
C        -29.42370       22.38480        5.63620
C        -28.10350       22.18300        5.80270
C        -27.82190       22.09520        7.22170
C        -28.96110       22.25520        7.91980
C        -29.01160       22.20560        9.32600
N        -29.03730       22.16220       10.48450
C        -27.18600       22.04240        4.71310
C        -26.10190       22.81770        4.56150
C        -25.20470       22.64020        3.47250
S        -24.88290       21.08630        2.80590
C        -23.77030       21.69780        1.67330
C        -23.66200       23.06860        1.77420
C        -24.45170       23.60490        2.82980
N        -23.15960       20.85100        0.81210
C        -22.22880       21.16670       -0.13860
C        -21.07140       21.80700        0.05690
C        -20.14720       22.14240       -0.98680
C        -18.98920       22.79290       -0.75340
C        -18.29710       22.97960       -2.02730
C        -19.16430       22.36930       -3.04280
C        -20.24530       21.88450       -2.41470
C        -18.97390       22.25760       -4.43690
N        -18.83430       22.16000       -5.58520
C        -17.11130       23.59750       -2.18630
C        -16.44330       23.80050       -3.46330
C        -15.29950       24.47200       -3.22990
C        -15.17120       24.71590       -1.81170
C        -16.23750       24.20300       -1.17140
C        -16.40950       24.28960        0.22520
N        -16.54670       24.37540        1.37050
C        -14.39140       24.85550       -4.27010
C        -14.74800       25.66770       -5.27780
C        -13.83830       26.04020       -6.30010
S        -12.16530       26.18100       -5.99150
C        -11.78930       26.54750       -7.62000
C        -12.94130       26.69080       -8.36170
C        -14.11600       26.38540       -7.60890
N        -10.51030       26.72480       -8.04350
C         -9.39510       26.07140       -7.56700
C         -9.34730       24.84090       -7.03810
C         -8.17340       24.23300       -6.49660
C         -8.22260       23.31340       -5.51060
C         -6.86120       22.87560       -5.22740
C         -6.00330       23.59350       -6.18650
C         -6.79670       24.38460       -6.92340
C         -4.60830       23.50520       -6.39430
N         -3.46350       23.44170       -6.57450
C         -6.51740       22.00010       -4.26430
C         -5.15250       21.60220       -3.98120
C         -5.14870       20.74300       -2.94560
C         -6.52750       20.53920       -2.53010
C         -7.34910       21.27550       -3.29750
C         -8.75360       21.29270       -3.14440
N         -9.90700       21.30070       -3.01040
C         -3.96240       20.14340       -2.39110
C         -2.72000       20.40910       -2.82710
C         -1.58340       19.77970       -2.27840
S         -0.07090       20.58830       -2.34900
C          0.73550       19.31960       -1.54430
C         -0.12130       18.27400       -1.27370
C         -1.45420       18.54080       -1.68480
N          2.05060       19.43380       -1.24780
C          2.82980       18.46220       -0.68350
C          3.08590       18.35320        0.62360
C          3.89170       17.32080        1.21130
C          4.09960       17.23160        2.54120
C          4.96000       16.07940        2.80090
C          5.25550       15.49730        1.48360
C          4.61890       16.24050        0.56390
C          6.04150       14.37100        1.15240
N          6.68440       13.44910        0.86520
C          5.37400       15.67730        4.01790
C          6.25400       14.54160        4.26220
C          6.47230       14.45330        5.58560
C          5.71630       15.49510        6.25330
C          5.06990       16.23990        5.34200
C          4.25710       17.34520        5.68300
N          3.59600       18.25190        5.97800
C          7.27320       13.43710        6.19670
C          8.56130       13.21590        5.89100
C          9.28890       12.17490        6.53050
S         10.93840       11.89320        6.12450
C         11.07390       10.56840        7.20360
C          9.88850       10.36400        7.87510
C          8.87440       11.27320        7.49220
N         12.23250        9.87210        7.31340
C         12.47950        8.79920        8.12830
C         13.61950        8.11980        8.24850
H        -33.98110       23.17480        9.10000
H        -31.50000       22.69220        9.42480
H        -34.50600       23.31440        6.52080
H        -29.91160       22.46660        4.73050
H        -26.88960       21.93450        7.63390
H        -27.36730       21.30900        4.01010
H        -25.91440       23.56120        5.25210
H        -23.07250       23.64320        1.15180
H        -24.46100       24.60430        3.08720
H        -23.41380       19.90210        0.87740
H        -22.44170       20.88120       -1.10720
H        -20.82730       22.07750        1.02240
H        -18.64890       23.10620        0.16920
H        -21.03090       21.40000       -2.87630
H        -16.78560       23.48570       -4.38460
H        -14.38410       25.20720       -1.36000
H        -13.42550       24.49300       -4.24350
H        -15.71300       26.03210       -5.30950
H        -12.95410       26.98590       -9.35050
H        -15.07020       26.41890       -8.00050
H        -10.36680       27.38420       -8.76030
H         -8.50120       26.58400       -7.62330
H        -10.22160       24.29300       -7.02070
H         -9.07670       22.97780       -5.03840
H         -6.47520       25.00770       -7.68060
H         -4.31670       21.92640       -4.49250
H         -6.82980       19.92130       -1.76070
H         -4.07310       19.47190       -1.61530
H         -2.59330       21.09520       -3.58740
H          0.17350       17.39410       -0.82210
H         -2.23800       17.88230       -1.55430
H          2.48490       20.29220       -1.45680
H          3.25100       17.76150       -1.31330
H          2.67610       19.06000        1.25400
H          3.71540       17.86990        3.25530
H          4.64230       16.06990       -0.45370
H          6.64310       13.91270        3.54230
H          5.68050       15.64190        7.27420
H          6.83470       12.83920        6.91460
H          9.02790       13.80680        5.18530
H          9.75440        9.62530        8.58320
H          7.92240       11.26390        7.89040
H         12.97840       10.17080        6.74460
H         11.69320        8.48080        8.71600
H         14.44260        8.38950        7.68740
H         13.67940        7.32380        8.90270
