122
630_221_01010101.out	Energy:   -4944.9572920
C          2.82750       10.02780       -9.28850
C          1.53650       10.23560       -9.59990
C          0.72540        9.89190       -8.42490
C          1.68930        9.46000       -7.39920
C          2.92330        9.54950       -7.92980
C          1.44520        9.02500       -6.07700
N          1.25170        8.66350       -4.99010
C         -0.61830        9.97470       -8.34540
C         -1.42560        9.63270       -7.17390
C         -2.71930        9.88100       -7.45400
C         -2.80870       10.33710       -8.83000
C         -1.57980       10.41310       -9.36550
C         -1.34590       10.84820      -10.68530
N         -1.17650       11.21420      -11.77450
C         -3.79030        9.64140       -6.52800
C         -4.92560       10.35490       -6.52930
C         -6.00440       10.13090       -5.61350
C         -6.38970        8.96800       -5.07680
C         -7.53150        9.14330       -4.24350
C         -7.93940       10.41810       -4.22860
C         -6.98750       11.15000       -5.12150
S         -6.97420       12.79070       -5.47930
C         -9.04830       10.93610       -3.48430
C         -9.38530       10.46170       -2.26530
C        -10.56890       11.16870       -1.79080
C        -10.89280       12.14340       -2.83940
C         -9.98830       11.99550       -3.82130
C        -11.94570       13.08500       -2.88590
N        -12.81790       13.84960       -2.93070
C        -11.19690       10.92090       -0.62520
C        -12.40070       11.59890       -0.16080
C        -12.72500       11.10750        1.04840
C        -11.77120       10.06700        1.39480
C        -10.85590        9.94790        0.42220
C         -9.79230        9.01920        0.47720
N         -8.92440        8.25050        0.52720
C        -13.87770       11.53870        1.78020
C        -13.93180       11.50250        3.11690
C        -15.06230       11.97250        3.84610
C        -16.32150       11.53300        3.76590
C        -17.16370       12.27400        4.64380
C        -16.47470       13.20740        5.31270
C        -15.06190       13.07710        4.84960
S        -13.73440       14.00220        5.29620
C        -17.01860       14.15410        6.23390
C        -18.24950       14.68210        6.07060
C        -18.50990       15.60780        7.16090
C        -17.29560       15.60570        7.98680
C        -16.43140       14.74500        7.42640
C        -17.01550       16.32930        9.16810
N        -16.78890       16.92080       10.14080
C        -19.65890       16.28740        7.32490
C        -19.91890       17.20980        8.41640
C        -21.17320       17.67600        8.28780
C        -21.75250       17.11630        7.08020
C        -20.87800       16.27650        6.50560
C        -21.16990       15.53520        5.33900
N        -21.41590       14.91860        4.38680
C        -21.77600       18.64110        9.15440
C        -21.50540       18.75840       10.46230
C        -22.13540       19.74340       11.28550
C        -22.53910       20.96000       10.91230
C        -23.09200       21.67160       12.01130
C        -23.04390       20.95620       13.14390
C        -22.41920       19.64850       12.75140
S        -22.11980       18.30220       13.70970
C        -23.51230       21.37810       14.43460
C        -24.32290       22.44660       14.60350
C        -24.64100       22.59250       16.01860
C        -23.92970       21.50590       16.69510
C        -23.27530       20.80870       15.75430
C        -23.87750       21.18370       18.06890
N        -23.83200       20.91350       19.19750
C        -25.43980       23.54590       16.53340
C        -25.77820       23.68270       17.94390
C        -26.58250       24.75250       18.08830
C        -26.82440       25.32430       16.77380
C        -26.14910       24.63170       15.84340
C        -26.17490       24.95310       14.46730
N        -26.18880       25.21530       13.33650
C        -27.12420       25.13860       19.35920
C        -27.45100       26.39740       19.68250
C        -27.94580       26.76660       20.97760
C        -27.63870       26.22800       22.16580
C        -28.30490       26.90960       23.23200
C        -29.03740       27.92140       22.76380
C        -28.85560       27.90580       21.29280
S        -29.57750       28.97840       20.23250
H          3.62640       10.18570       -9.92250
H          1.17830       10.57680      -10.50560
H          3.80110        9.31300       -7.44130
H         -1.06370        9.26270       -6.28100
H         -3.68570       10.56810       -9.32250
H         -3.68150        8.88770       -5.83150
H         -5.02800       11.10690       -7.22870
H         -5.92170        8.06360       -5.24410
H         -7.98760        8.38210       -3.71670
H         -8.88560        9.71850       -1.75250
H         -9.96340       12.55260       -4.68970
H        -12.91660       12.33160       -0.67280
H        -11.79480        9.50430        2.25960
H        -14.69580       11.88990        1.25830
H        -13.12680       11.12090        3.63770
H        -16.63910       10.76490        3.15420
H        -18.17730       12.11200        4.75080
H        -18.89920       14.46460        5.29890
H        -15.48850       14.53340        7.78860
H        -19.25390       17.46410        9.16350
H        -22.69460       17.33190        6.71820
H        -22.46560       19.29080        8.74550
H        -20.81940       18.11640       10.88930
H        -22.46030       21.33380        9.95370
H        -23.48330       22.62430       11.94530
H        -24.66320       23.06270       13.84870
H        -22.68530       19.98260       15.93990
H        -25.45570       23.06380       18.70420
H        -27.42590       26.14130       16.58420
H        -27.27120       24.40240       20.06730
H        -27.34200       27.13400       18.96800
H        -27.00330       25.42500       22.29470
H        -28.22930       26.65330       24.22880
H        -29.61220       28.57960       23.31270
