178
630_630_01010101.out	Energy:   -5170.7716626
C         13.25980       14.65990       -6.76400
C         12.76950       15.48240       -7.72220
C         11.46360       15.95770       -7.30570
C         11.21440       15.33580       -5.99130
C         12.29790       14.56530       -5.68430
C         10.06770       15.51020       -5.19370
N          9.13430       15.64320       -4.52910
C         10.62770       16.80940       -7.98160
C          9.33870       17.27410       -7.56870
C          8.83140       18.12890       -8.52820
C          9.81870       18.22470       -9.60260
C         10.88710       17.44550       -9.29560
C         12.03710       17.27850      -10.09360
N         12.96160       17.16130      -10.77240
C          7.59410       18.82560       -8.54330
C          6.63570       18.72110       -7.57310
C          5.40150       19.41480       -7.58350
C          4.39390       19.29350       -6.63510
C          3.31410       20.14390       -6.98380
C          3.71690       20.82740       -8.23410
C          4.95380       20.38170       -8.58140
C          2.95430       21.77000       -8.95240
N          2.35030       22.54260       -9.55900
C          2.10900       20.30920       -6.31780
C          1.03760       21.16790       -6.66290
C         -0.00060       21.00380       -5.74950
C          0.42620       20.00360       -4.77540
C          1.68000       19.58810       -5.09690
C          2.43230       18.62880       -4.38900
N          3.02720       17.84210       -3.79210
C         -1.23710       21.68150       -5.78310
C         -2.28160       21.44960       -4.92140
C         -3.52690       22.10820       -4.97850
C         -4.63400       21.82560       -4.17820
C         -5.70720       22.66490       -4.54870
C         -5.19800       23.53020       -5.63790
C         -3.90670       23.18430       -5.88730
C         -5.92040       24.53730       -6.30880
N         -6.48980       25.36700       -6.87180
C         -7.00300       22.67070       -4.04270
C         -8.08220       23.48980       -4.43640
C         -9.22570       23.12760       -3.72120
C         -8.85280       22.04060       -2.82250
C         -7.53270       21.76440       -2.99700
C         -6.80150       20.78120       -2.30040
N         -6.22340       19.97340       -1.71500
C        -10.49950       23.70720       -3.86960
C        -11.63840       23.27610       -3.22810
C        -12.91500       23.84150       -3.40220
C        -14.10080       23.36730       -2.83350
C        -15.17640       24.17620       -3.25030
C        -14.59380       25.22380       -4.12150
C        -13.25410       25.00780       -4.20950
C        -15.30040       26.26150       -4.76200
N        -15.85700       27.11750       -5.29780
C        -16.52830       24.02940       -2.94630
C        -17.59750       24.85010       -3.35470
C        -18.79720       24.32700       -2.86170
C        -18.46970       23.12370       -2.10650
C        -17.12300       22.93810       -2.13870
C        -16.42180       21.88450       -1.51940
N        -15.87020       21.01300       -1.00360
C        -20.10680       24.81330       -3.03010
C        -20.42300       25.98670       -3.67960
C        -21.72820       26.47740       -3.85770
C        -22.06520       27.70070       -4.44610
C        -23.46580       27.85140       -4.44450
C        -24.01390       26.62300       -3.82300
C        -22.97240       25.82200       -3.47180
C        -25.37700       26.32890       -3.61910
N        -26.48510       26.06350       -3.44200
C        -24.21220       28.93600       -4.90010
C        -25.61340       29.08260       -4.90170
C        -25.94840       30.34530       -5.39930
C        -24.70330       31.02510       -5.73850
C        -23.66340       30.19650       -5.45370
C        -22.29960       30.49780       -5.64300
N        -21.19110       30.76670       -5.81110
C        -27.25380       30.85520       -5.52050
C        -27.56230       32.13420       -5.92580
C        -28.86740       32.65460       -6.00510
C        -29.19910       33.97470       -6.32000
C        -30.59960       34.13320       -6.26240
C        -31.15150       32.80460       -5.90820
C        -30.11360       31.93980       -5.75260
C        -32.51510       32.48330       -5.75410
N        -33.62390       32.19470       -5.62460
C        -31.33730       35.29770       -6.45280
C        -32.73550       35.46280       -6.35870
C        -33.05920       36.80500       -6.56200
C        -31.81380       37.52260       -6.81170
C        -30.78260       36.63780       -6.75600
C        -29.42230       36.94980       -6.95200
N        -28.31550       37.22900       -7.11540
C        -34.35710       37.35110       -6.50840
C        -34.65050       38.68880       -6.62340
C        -35.94740       39.23470       -6.53170
C        -36.26240       40.59200       -6.56090
C        -37.65960       40.75420       -6.40990
C        -38.22260       39.38850       -6.30110
C        -37.19690       38.49860       -6.36920
C        -39.58480       39.05770       -6.15350
N        -40.69240       38.76050       -6.03250
C        -38.37880       41.93930       -6.34170
C        -39.77380       42.09920       -6.15980
C        -40.08120       43.45410       -6.10660
C        -38.83430       44.19530       -6.27140
C        -37.81480       43.30710       -6.41590
C        -36.45740       43.63760       -6.60170
N        -35.35330       43.93270       -6.75490
C        -41.37310       43.99600       -5.91330
C        -41.65430       45.33190       -5.80870
C        -42.94880       45.86640       -5.59650
C        -43.25560       47.20920       -5.44480
C        -44.65900       47.35500       -5.24100
C        -45.21880       45.98490       -5.28300
C        -44.19640       45.11400       -5.49100
C        -46.57560       45.63210       -5.13250
N        -47.67700       45.31290       -5.01360
C        -45.36620       48.51970       -5.03810
C        -46.77630       48.66710       -4.83670
C        -47.07580       49.99720       -4.67040
C        -45.82960       50.75440       -4.76240
C        -44.80420       49.88840       -4.98180
C        -43.44700       50.23710       -5.12500
N        -42.34140       50.54490       -5.23860
C        -48.38720       50.54720       -4.44550
C        -48.65600       51.84650       -4.28150
H         14.20860       14.14480       -6.77410
H         13.24840       15.75320       -8.64860
H         12.43300       13.97690       -4.78960
H          8.85730       16.99310       -6.64650
H          9.69220       18.82510      -10.49090
H          7.41940       19.47360       -9.39740
H          6.80640       18.06010       -6.72780
H          4.42760       18.65210       -5.76960
H          5.51960       20.68930       -9.44710
H          1.02220       21.84000       -7.50530
H         -0.16160       19.66210       -3.93760
H         -1.35580       22.42100       -6.57010
H         -2.17240       20.69390       -4.14850
H         -4.66540       21.07200       -3.40840
H         -3.26050       23.63110       -6.62690
H         -8.04060       24.26500       -5.18390
H         -9.51950       21.54930       -2.13100
H        -10.56990       24.53890       -4.56510
H        -11.57470       22.42700       -2.55320
H        -14.17480       22.51040       -2.18400
H        -12.55050       25.60010       -4.77370
H        -17.50140       25.73680       -3.95910
H        -19.19590       22.50150       -1.60610
H        -20.90670       24.21580       -2.60200
H        -19.61820       26.59870       -4.07750
H        -21.35710       28.41550       -4.83240
H        -23.04550       24.85670       -2.99540
H        -26.32230       28.34470       -4.56340
H        -24.62990       32.01890       -6.15220
H        -28.06030       30.18160       -5.24430
H        -26.75560       32.81570       -6.18120
H        -28.48930       34.75150       -6.55290
H        -30.19000       30.89540       -5.49290
H        -33.44600       34.68060       -6.14700
H        -31.73480       38.57960       -7.01320
H        -35.16640       36.64610       -6.33920
H        -33.84040       39.39720       -6.77280
H        -35.54830       41.39230       -6.66720
H        -37.28360       37.42430       -6.31940
H        -40.48700       41.29670       -6.06610
H        -38.74700       45.27070       -6.27980
H        -42.18260       43.27590       -5.83190
H        -40.84540       46.05370       -5.87830
H        -42.54560       48.01960       -5.47210
H        -44.28300       44.04130       -5.57030
H        -47.48380       47.85450       -4.82140
H        -45.74720       51.82640       -4.66970
H        -49.19690       49.82280       -4.41150
H        -47.89040       52.61010       -4.30400
H        -49.66520       52.19620       -4.11460
