170
630_115_01010101.out	Energy:   -5759.0822683
C         -0.70280       -1.08500        1.87430
C         -1.14250        0.13700        2.26180
C         -1.75070        0.79390        1.12400
C         -1.62760       -0.15620       -0.00230
C         -0.99930       -1.27120        0.46390
C         -2.06330        0.06620       -1.32300
N         -2.40660        0.24160       -2.40960
C         -2.33420        2.03940        1.08680
C         -2.97170        2.66620       -0.02030
C         -3.44170        3.92450        0.36430
C         -3.08300        4.11170        1.76650
C         -2.43190        3.00390        2.20780
C         -1.92930        2.81980        3.51320
N         -1.52950        2.70120        4.58750
C         -4.15010        4.80880       -0.46390
C         -4.56410        6.07030       -0.06570
C         -5.30040        7.01150       -0.79070
C         -6.15550        6.91790       -1.92650
N         -6.58750        5.77740       -2.66490
O         -6.35020        4.67110       -2.23520
O         -7.20120        5.99210       -3.68250
C         -6.72430        8.17570       -2.17410
C         -6.26190        9.08460       -1.21870
C         -5.38100        8.42220       -0.36060
C         -4.54630        9.03970        0.60840
C         -3.20700        8.73560        0.82460
C         -2.62750        9.74610        1.61730
C         -3.59460       10.68470        1.93480
N         -3.23920       11.90040        2.59880
O         -3.92780       12.87670        2.42220
O         -2.22040       11.88480        3.24480
C         -4.86640       10.24540        1.40990
C         -6.13770       10.59800        1.82530
C         -6.52640       11.65660        2.71640
C         -7.88980       11.64210        2.88300
C         -8.41610       10.49420        2.09600
C         -7.36960        9.87780        1.49470
C         -9.76410       10.08500        2.05830
N        -10.86660        9.74900        2.03470
C         -8.69510       12.50820        3.67070
C        -10.05980       12.66720        3.61680
C        -10.46440       13.62130        4.61300
C         -9.25540       14.05320        5.29660
C         -8.19460       13.41020        4.74150
C         -6.84860       13.51260        5.15110
N         -5.75720       13.57770        5.51440
C        -11.76920       13.96790        4.87090
C        -12.16890       14.87230        5.87940
C        -13.45840       15.11630        6.28420
C        -13.89750       16.21980        7.11760
N        -13.09270       17.18660        7.78600
O        -11.88770       17.09930        7.70940
O        -13.67520       18.04290        8.40670
C        -15.27490       16.24940        7.13420
C        -15.76330       15.16140        6.36600
C        -14.69670       14.44190        5.86140
C        -14.78650       13.16630        5.20390
C        -14.04990       12.04630        5.54440
C        -14.56180       10.92360        4.84690
C        -15.63750       11.32750        4.08320
N        -16.22810       10.45280        3.11660
O        -16.78340       10.93740        2.16030
O        -16.09140        9.26990        3.30660
C        -15.83300       12.75010        4.25420
C        -16.77180       13.58020        3.67190
C        -18.03390       13.22080        3.09370
C        -18.68530       14.35550        2.67050
C        -17.77020       15.50490        2.92980
C        -16.65640       15.03190        3.54190
C        -18.00000       16.84680        2.56580
N        -18.16370       17.95030        2.27610
C        -19.97520       14.45870        2.08680
C        -20.66240       15.60450        1.75240
C        -21.91290       15.24280        1.14370
C        -21.96270       13.79010        1.12130
C        -20.83320       13.30610        1.70060
C        -20.54760       11.94260        1.92200
N        -20.36740       10.82120        2.11640
C        -22.92350       16.06170        0.69480
C        -22.89650       17.46970        0.79170
C        -23.91370       18.33520        0.46840
C        -23.78790       19.77460        0.34600
N        -22.67740       20.59310        0.70260
O        -22.76830       21.77050        0.45000
O        -21.72290       20.08190        1.24260
C        -24.93440       20.28030       -0.23090
C        -25.83730       19.21440       -0.45750
C        -25.27130       18.02950       -0.01480
C        -25.96700       16.78220        0.09330
C        -25.98310       15.95730        1.21060
C        -26.97660       14.97290        1.03810
C        -27.60730       15.17950       -0.18290
N        -28.52550       14.22330       -0.71330
O        -28.98960       13.42890        0.06830
O        -28.75850       14.23380       -1.89900
C        -27.00310       16.30410       -0.83720
C        -27.26380       16.85480       -2.08940
C        -28.46730       16.81520       -2.83860
C        -28.30440       17.53430       -4.01910
C        -26.89210       18.00110       -4.04270
C        -26.30100       17.61990       -2.88170
C        -26.26910       18.71610       -5.08490
N        -25.74350       19.30820       -5.92290
C        -29.26470       17.80160       -5.00730
C        -29.08280       18.47960       -6.21350
C        -30.30730       18.51830       -6.91590
C        -31.29860       17.83440       -6.09820
C        -30.69650       17.40620       -4.95710
C        -31.33570       16.75070       -3.88450
N        -31.88810       16.24900       -3.00620
C        -30.50210       19.14670       -8.14860
C        -31.69030       19.11900       -8.86290
C        -31.89830       19.76260      -10.08920
C        -32.79810       19.38080      -11.10060
N        -33.79510       18.36270      -11.05620
O        -33.96800       17.76320      -10.01960
O        -34.41680       18.16670      -12.07240
C        -32.51000       20.10330      -12.29440
C        -31.47010       20.96060      -12.05430
C        -31.10270       20.86820      -10.67010
C        -30.35460       21.81400      -10.00250
C        -30.30130       22.09610       -8.57220
C        -29.49130       23.15850       -8.36820
C        -28.98340       23.58510       -9.66580
N        -28.07810       24.67930       -9.85330
O        -27.72440       25.27900       -8.86990
O        -27.73530       24.92520      -10.98240
C        -29.51600       22.81110      -10.64800
H         -0.20900       -1.82190        2.48940
H         -1.07160        0.56590        3.24740
H         -0.75230       -2.15500       -0.10400
H         -3.08680        2.23350       -1.00130
H         -3.30710        4.98920        2.35330
H         -4.34630        4.47160       -1.47430
H         -4.25120        6.39990        0.92220
H         -7.41630        8.38310       -2.97630
H         -6.49030       10.13850       -1.19040
H         -2.65530        7.93830        0.35150
H         -1.58720        9.81800        1.89740
H         -5.85530       12.37730        3.14980
H         -7.42380        8.97210        0.91490
H        -10.74320       12.17630        2.94280
H         -9.22030       14.76350        6.10730
H        -12.53510       13.51530        4.24890
H        -11.38330       15.45350        6.35180
H        -15.87670       16.97570        7.65920
H        -16.80530       14.90150        6.26110
H        -13.24960       12.01330        6.26750
H        -14.17050        9.91820        4.88350
H        -18.43300       12.22130        3.07790
H        -15.78060       15.60350        3.80170
H        -20.32410       16.61680        1.90200
H        -22.78690       13.21510        0.72870
H        -23.78550       15.58620        0.23800
H        -21.96430       17.91380        1.12630
H        -25.11260       21.32170       -0.45240
H        -26.84130       19.32850       -0.83590
H        -25.38550       16.08880        2.09930
H        -27.21370       14.17580        1.72630
H        -29.38320       16.35700       -2.50680
H        -25.26700       17.76680       -2.61440
H        -28.15950       18.90340       -6.57360
H        -32.33710       17.70580       -6.35950
H        -29.64040       19.64570       -8.58340
H        -32.48650       18.47420       -8.50660
H        -33.04750       19.96770      -13.22070
H        -31.05670       21.67140      -12.75210
H        -30.88760       21.58160       -7.82830
H        -29.24530       23.65020       -7.44040
H        -29.31190       22.88390      -11.70390
