150
630_552_01010101.out	Energy:   -5328.4220422
C         -7.52530       -3.87670        2.43590
C         -7.52290       -3.45370        1.15910
C         -7.99760       -2.06100        1.13400
C         -8.30640       -1.73740        2.53650
C         -8.01860       -2.81730        3.28380
C         -8.88610       -0.56290        3.06180
N         -9.36560        0.39270        3.51370
C         -8.08120       -1.27650        0.03570
C         -8.39120        0.16410       -0.00100
C         -8.28670        0.59700       -1.27540
C         -7.98900       -0.55820       -2.10890
C         -7.82550       -1.65620       -1.35840
C         -7.46280       -2.91140       -1.89740
N         -7.13460       -3.93050       -2.34610
C         -8.29250        1.97970       -1.70600
C         -8.95810        2.39230       -2.79310
C         -8.86050        3.69470       -3.37250
S        -10.39460        4.29630       -3.96880
C         -9.71440        5.69130       -4.62420
C         -8.36800        5.73770       -4.37930
C         -7.83450        4.62500       -3.60410
N         -6.48630        4.61270       -3.18920
C         -5.87180        5.95510       -3.09580
C         -5.18690        6.36040       -4.40550
C         -5.63900        3.49970       -2.99550
C         -5.69040        2.28560       -3.58090
C         -4.52520        1.45800       -3.19360
C         -3.69130        2.33170       -2.36510
C         -4.37040        3.50830       -2.22680
C         -2.35810        2.14500       -1.89670
N         -1.26510        2.01740       -1.55050
C         -4.25680        0.22160       -3.69870
C         -2.98000       -0.53190       -3.60390
C         -2.94190       -1.44080       -4.61440
C         -4.21690       -1.39560       -5.30630
C         -5.01750       -0.47580       -4.75060
C         -6.28550       -0.19920       -5.27900
N         -7.35130       -0.01770       -5.71390
C         -1.76730       -2.09620       -5.15770
C         -0.68810       -2.50910       -4.47090
C          0.48130       -3.02340       -5.13290
S          0.29310       -4.54280       -5.95460
C          1.95230       -4.67810       -6.25930
C          2.64620       -3.58450       -5.80100
C          1.80890       -2.54790       -5.24490
N          2.33390       -1.27530       -4.90780
C          3.66130       -1.28380       -4.20160
C          4.62850       -0.15040       -4.53780
C          1.62140       -0.07360       -5.09460
C          1.77200        1.18200       -4.58970
C          0.59980        1.98630       -4.94300
C         -0.29640        1.05220       -5.52650
C          0.38200       -0.03500       -5.87700
C         -1.78270        1.36430       -5.58780
N         -3.01580        1.62330       -5.63860
C          0.41300        3.30860       -5.08780
C         -0.78780        4.12080       -5.35190
C         -0.42000        5.35940       -5.75500
C          1.03410        5.39640       -5.71870
C          1.49090        4.20790       -5.29770
C          2.97500        3.88970       -5.21750
N          4.20630        3.62580       -5.15100
C         -1.34350        6.46570       -5.90980
C         -1.06030        7.62770       -6.51630
C         -1.86910        8.81440       -6.42090
S         -1.91020        9.71760       -7.92080
C         -2.91070       10.91620       -7.28930
C         -3.24740       10.64990       -5.98660
C         -2.60420        9.48450       -5.40770
N         -2.76590        9.15940       -4.03150
C         -1.68320        8.36860       -3.37660
C         -1.85230        7.99570       -1.90740
C         -3.75140        9.74650       -3.21900
C         -4.07780       11.03290       -2.96480
C         -5.34400       11.06020       -2.21360
C         -5.67380        9.68510       -1.90870
C         -4.69790        8.94450       -2.45640
C         -6.65930        9.16030       -1.03960
N         -7.46380        8.70790       -0.34300
C         -6.07960       12.15390       -1.95220
C         -7.49230       12.15740       -1.57490
C         -7.92600       13.43800       -1.60600
C         -6.78160       14.29420       -1.88530
C         -5.68580       13.54870       -2.08640
C         -4.37440       14.06120       -2.19760
N         -3.28730       14.46310       -2.27690
C         -9.30750       13.79870       -1.39500
C         -9.78070       15.05260       -1.48220
C        -11.15540       15.38210       -1.26800
S        -12.41990       14.30550       -1.75680
C        -13.63810       15.35300       -1.20480
C        -13.12020       16.52300       -0.70610
C        -11.69530       16.55170       -0.73910
N        -10.93540       17.59320       -0.29170
C        -11.48570       18.78010        0.34580
C        -11.65910       18.55740        1.83830
H         -7.22300       -4.80940        2.75800
H         -7.23730       -4.01020        0.33820
H         -8.13280       -2.87940        4.30760
H         -8.64590        0.74550        0.81270
H         -7.91410       -0.53500       -3.13790
H         -7.76400        2.67360       -1.15450
H         -9.59120        1.71600       -3.24790
H        -10.24120        6.41310       -5.14040
H         -7.77190        6.50800       -4.72020
H         -5.14370        5.94870       -2.31180
H         -6.64850        6.66290       -2.89390
H         -4.40450        5.66550       -4.62880
H         -4.77360        7.34200       -4.30290
H         -5.90450        6.35670       -5.19920
H         -6.44260        1.97450       -4.21520
H         -4.04200        4.30440       -1.65810
H         -2.24650       -0.38970       -2.89200
H         -4.47090       -1.98800       -6.11230
H         -1.75940       -2.26250       -6.17620
H         -0.69860       -2.45570       -3.44030
H          2.38980       -5.48440       -6.73200
H          3.67440       -3.51050       -5.84990
H          4.14860       -2.20620       -4.43970
H          3.42770       -1.15380       -3.16550
H          4.90960       -0.21520       -5.56810
H          5.50120       -0.23240       -3.92410
H          4.15220        0.79050       -4.35660
H          2.58310        1.51420       -4.04490
H          0.08750       -0.73190       -6.57880
H         -1.76120        3.79480       -5.24570
H          1.61950        6.20650       -5.97550
H         -2.29330        6.35020       -5.52300
H         -0.20400        7.67420       -7.09060
H         -3.22960       11.74490       -7.81510
H         -3.91050       11.23620       -5.45600
H         -0.78090        8.93790       -3.45770
H         -1.69110        7.43050       -3.89120
H         -1.85560        8.88460       -1.31180
H         -1.04230        7.36590       -1.60370
H         -2.77770        7.47490       -1.77580
H         -3.53010       11.85970       -3.25010
H         -4.62620        7.92060       -2.34910
H         -8.05780       11.33000       -1.32880
H         -6.81010       15.32510       -1.92300
H         -9.97370       13.04560       -1.16230
H         -9.12230       15.81260       -1.71440
H        -14.64640       15.13610       -1.24010
H        -13.69970       17.29740       -0.34630
H         -9.95920       17.53860       -0.40690
H        -12.43770       19.00270       -0.08890
H        -10.80910       19.59540        0.19640
H        -12.33430       17.74350        2.00140
H        -12.05430       19.44430        2.28770
H        -10.71070       18.32740        2.27720
