146
630_952_01010101.out	Energy:   -4700.2672350
C        -13.92320        7.81020       -7.17870
C        -12.59300        8.04630       -7.24330
C        -12.03710        7.95800       -5.90280
C        -13.17950        7.64390       -5.01910
C        -14.29470        7.56060       -5.79710
C        -13.12590        7.46490       -3.62330
N        -13.10130        7.32260       -2.47930
C        -10.73220        8.12310       -5.52830
C        -10.18230        8.01430       -4.20440
C         -8.82380        8.23220       -4.25540
C         -8.46560        8.50000       -5.64900
C         -9.58670        8.43920       -6.41240
C         -9.64290        8.65030       -7.80610
N         -9.65760        8.82940       -8.94450
C         -7.93460        8.18450       -3.14640
C         -6.58510        8.36860       -3.21370
C         -5.76920        8.27980       -2.05260
N         -6.32170        8.16000       -0.84610
C         -5.30680        8.16580        0.04770
C         -4.01800        8.31320       -0.63350
C         -2.90900        8.28180        0.35230
O         -1.72410        8.35170        0.14360
C         -3.62550        8.12990        1.63880
C         -5.07940        8.06380        1.40010
N         -5.74270        7.90820        2.57980
C         -4.81370        7.87310        3.50990
C         -3.46880        8.00220        2.98230
C         -4.28920        8.36210       -1.97770
C         -3.34150        8.45380       -3.04760
C         -2.05550        8.93230       -2.93720
C         -1.40290        8.83200       -4.20720
C         -2.39460        8.22920       -5.12910
C         -3.53940        8.01480       -4.42910
C         -2.19360        7.93990       -6.49360
N         -2.04010        7.71220       -7.61370
C         -0.11190        9.18360       -4.52400
C          0.55070        8.98040       -5.77480
C          1.86150        9.40080       -5.67000
C          2.05610        9.91670       -4.31560
C          0.88950        9.80610       -3.62840
C          0.65850       10.26900       -2.31550
N          0.49720       10.69720       -1.25810
C          2.86950        9.36220       -6.67100
C          2.63360        9.02260       -7.97280
C          3.66030        9.01420       -8.95010
N          4.91870        9.33050       -8.64010
C          5.61440        9.32100       -9.79940
C          4.73450        9.00620      -10.92920
C          5.50520        8.98190      -12.19620
O          5.10060        8.75540      -13.30860
C          6.87840        9.29830      -11.74110
C          6.89140        9.49920      -10.28000
N          8.15540        9.77670       -9.85490
C          8.90760        9.75630      -10.93380
C          8.16640        9.45790      -12.14370
C          3.49170        8.77320      -10.40280
C          2.29950        8.41810      -11.11550
C          2.02710        8.76020      -12.41830
C          0.74390        8.23890      -12.78370
C          0.26020        7.48270      -11.60370
C          1.18230        7.61710      -10.61430
C         -0.94490        6.75570      -11.52670
N         -1.92620        6.15330      -11.46660
C          0.06350        8.43330      -13.96220
C         -1.20060        7.87620      -14.33430
C         -1.54900        8.33640      -15.58850
C         -0.48610        9.23020      -16.04600
C          0.48090        9.29160      -15.09420
C          1.64280       10.09000      -15.15280
N          2.56400       10.77790      -15.22860
C         -2.71690        8.04000      -16.34100
C         -3.69040        7.16780      -15.94430
C         -4.82620        6.90270      -16.75080
N         -4.97250        7.47750      -17.94610
C         -6.08880        6.94810      -18.49400
C         -6.68240        5.95000      -17.59880
C         -7.91690        5.38700      -18.19780
O         -8.65690        4.55570      -17.73500
C         -8.00410        6.10750      -19.48890
C         -6.87110        7.04150      -19.62210
N         -6.95430        7.71660      -20.80240
C         -8.04280        7.27170      -21.39210
C         -8.74450        6.26740      -20.61730
C         -5.91010        5.93230      -16.46750
C         -6.10590        5.12990      -15.29580
C         -6.73160        3.90670      -15.27210
C         -6.74550        3.40970      -13.92790
C         -6.11890        4.46530      -13.09800
C         -5.72360        5.46900      -13.92530
C         -5.96780        4.43640      -11.69710
N         -5.85400        4.42850      -10.54980
C         -7.20600        2.18960      -13.49420
C         -7.26580        1.70220      -12.14950
C         -7.79560        0.42730      -12.14950
C         -8.07860        0.06230      -13.53790
C         -7.73350        1.09850      -14.34480
C         -7.80480        1.09100      -15.75430
N         -7.85160        1.02520      -16.90370
C         -8.01010       -0.38560      -11.00580
C         -8.53490       -1.64590      -11.02440
C         -8.70370       -2.40030       -9.83440
N         -8.35210       -1.92450       -8.63350
C         -8.64340       -2.89840       -7.74810
C         -9.22380       -4.07360       -8.43730
C         -9.53890       -5.14020       -7.44700
O        -10.02130       -6.22490       -7.64550
C         -9.11030       -4.52840       -6.16920
C         -8.57760       -3.17390       -6.40490
N         -8.18160       -2.61370       -5.22590
C         -8.42940       -3.51520       -4.30180
C         -9.01000       -4.73330       -4.82920
C         -9.25760       -3.75370       -9.74930
H        -14.62230        7.80110       -8.00130
H        -12.01540        8.26220       -8.12670
H        -15.29730        7.34510       -5.46040
H        -10.75240        7.78960       -3.31770
H         -7.46760        8.71130       -6.00130
H         -8.37330        7.96540       -2.17600
H         -6.11010        8.59300       -4.16060
H         -5.06980        7.75860        4.55410
H         -2.56450        7.99480        3.56890
H         -1.59820        9.31890       -2.04100
H         -4.43230        7.54720       -4.81250
H          0.09480        8.53050       -6.64080
H          2.98360       10.33160       -3.95160
H          3.88140        9.63410       -6.38270
H          1.62660        8.78610       -8.29530
H          9.97000        9.94950      -10.88020
H          8.58830        9.38880      -13.13330
H          2.66680        9.33720      -13.06610
H          1.13340        7.16240       -9.63730
H         -1.77310        7.19910      -13.72250
H         -0.49490        9.74870      -16.99250
H         -2.83710        8.54090      -17.29820
H         -3.59430        6.63400      -15.00630
H         -8.34780        7.64420      -22.36020
H         -9.65720        5.77590      -20.91300
H         -7.14210        3.39210      -16.12540
H         -5.25710        6.39320      -13.62190
H         -6.95770        2.25550      -11.27730
H         -8.48540       -0.88460      -13.85760
H         -7.72750        0.03320      -10.04290
H         -8.83730       -2.11100      -11.95660
H         -8.20630       -3.32630       -3.26070
H         -9.28850       -5.59590       -4.24560
H         -9.60490       -4.32900      -10.59240
