130
630_182_01010101.out	Energy:   -3509.7516626
C          4.74720        2.06460        0.09610
C          3.84030        2.32470       -0.86230
C          3.09670        3.52880       -0.46960
C          3.67030        3.93710        0.82480
C          4.64040        3.06010        1.13660
C          3.31850        5.03170        1.64710
N          3.03570        5.92850        2.32820
C          2.10310        4.10630       -1.17850
C          1.36150        5.30940       -0.79700
C          0.45020        5.57960       -1.75350
C          0.56880        4.56410       -2.78680
C          1.53430        3.69140       -2.46460
C          1.88080        2.59630       -3.28310
N          2.16060        1.70050       -3.96550
C         -0.45160        6.70090       -1.69820
C         -1.36060        6.96760       -2.64860
C         -2.27880        8.10580       -2.60620
C         -2.70480        8.67460       -3.81110
C         -3.60260        9.74390       -3.81250
C         -4.09420       10.25860       -2.60860
C         -3.67030        9.67730       -1.40510
C         -2.78450        8.60260       -1.40400
C         -5.04660       11.37040       -2.60860
C         -5.98180       11.54670       -1.65230
C         -6.75870       12.73770       -1.97190
C         -6.21020       13.24310       -3.23870
C         -5.19800       12.43310       -3.59150
C         -6.59830       14.37550       -3.99150
N         -6.91390       15.30010       -4.61790
C         -7.76000       13.22360       -1.21400
C         -8.56940       14.38030       -1.55430
C         -9.48220       14.56430       -0.58340
C         -9.26800       13.56570        0.44730
C         -8.26620       12.75520        0.08660
C         -7.81550       11.67750        0.87870
N         -7.44790       10.79950        1.54010
C        -10.43850       15.62990       -0.57070
C        -10.97250       16.14750       -1.68750
C        -11.96230       17.21810       -1.67200
C        -12.03160       18.10450       -2.75010
C        -12.97030       19.13420       -2.74860
C        -13.85280       19.28640       -1.67350
C        -13.79300       18.38100       -0.60830
C        -12.86730       17.34660       -0.61630
C        -14.82200       20.37650       -1.67090
C        -16.04110       20.31440       -1.09250
C        -16.71630       21.59340       -1.30220
C        -15.82520       22.35960       -2.03730
C        -14.69410       21.68520       -2.27440
C        -16.05730       23.77770       -2.53300
N        -16.24990       24.95410       -2.94410
C        -17.91470       22.06680       -0.98250
C        -18.58320       23.34430       -1.17700
C        -19.83680       23.23840       -0.69470
C        -20.01430       21.89730       -0.19750
C        -18.85680       21.25590       -0.36720
C        -18.62400       19.83050        0.10640
N        -18.43090       18.64790        0.49920
C        -20.79340       24.29320       -0.76190
C        -21.79970       24.44000        0.11110
C        -22.76960       25.53400        0.04080
C        -22.70420       26.51160       -0.95770
C        -23.62280       27.55040       -1.00700
C        -24.63210       27.64170       -0.05010
C        -24.70680       26.66290        0.95150
C        -23.78770       25.61320        0.99430
C        -25.58340       28.74890       -0.11540
C        -26.86360       28.66970        0.30200
C        -27.51070       29.95960        0.06820
C        -26.48580       30.80650       -0.55840
C        -25.35900       30.08280       -0.65110
C        -26.58470       32.14350       -1.00180
N        -26.65850       33.24100       -1.37230
C        -28.78820       30.25410        0.38370
C        -29.45050       31.53200        0.13440
C        -30.71670       31.45500        0.58700
C        -30.93080       30.12000        1.11890
C        -29.80000       29.40370        1.02560
C        -29.68540       28.08260        1.51120
N        -29.59890       27.00140        1.92500
C        -31.66210       32.53060        0.47000
C        -32.65950       32.72980        1.34470
C        -33.61940       33.83380        1.24350
C        -34.91580       33.65600        1.74210
C        -35.84680       34.69460        1.67720
C        -35.48600       35.92200        1.12450
C        -34.19380       36.11560        0.64370
C        -33.26320       35.07930        0.71040
H          5.41460        1.27750        0.08890
H          3.69260        1.77450       -1.72280
H          5.22030        3.09320        1.98970
H          1.51150        5.86030        0.06260
H         -0.00590        4.52120       -3.64290
H         -0.39580        7.33300       -0.88430
H         -1.41540        6.33090       -3.45890
H         -2.35250        8.30090       -4.70630
H         -3.90560       10.15730       -4.70820
H         -4.01930       10.05060       -0.50850
H         -2.50080        8.17180       -0.51020
H         -6.12360       10.93880       -0.83050
H         -4.61420       12.54750       -4.43480
H         -8.46230       14.96330       -2.39900
H         -9.80620       13.49180        1.32470
H        -10.73060       16.01800        0.33980
H        -10.66880       15.77080       -2.59900
H        -11.38660       17.99640       -3.54850
H        -13.01490       19.78870       -3.54520
H        -14.44130       18.48290        0.18820
H        -12.84780       16.66920        0.16200
H        -16.42950       19.50210       -0.58830
H        -13.87540       22.03640       -2.79540
H        -18.16930       24.18520       -1.60910
H        -20.87630       21.50590        0.21330
H        -20.70620       24.98210       -1.52520
H        -21.89550       23.74750        0.87030
H        -21.95950       26.45920       -1.67030
H        -23.55850       28.25820       -1.75530
H        -25.44990       26.71940        1.66530
H        -23.86040       24.89450        1.73130
H        -27.31140       27.83770        0.71700
H        -24.46690       30.42190       -1.04380
H        -29.02020       32.35600       -0.31370
H        -31.82070       29.77400        1.51050
H        -31.56940       33.18140       -0.32560
H        -32.75660       32.06980        2.13220
H        -35.18490       32.75160        2.16010
H        -36.80290       34.55320        2.03900
H        -36.17650       36.68710        1.07150
H        -33.92480       37.02570        0.23830
H        -32.30310       35.23130        0.36370
