150
630_911_01010101.out	Energy:   -5628.3679585
C         16.65200       12.57290       -1.29240
C         15.51750       12.11100       -1.84850
C         15.50920       12.51220       -3.26060
C         16.75600       13.26990       -3.46110
C         17.40760       13.30230       -2.28520
C         17.16330       14.00000       -4.60180
N         17.49380       14.61400       -5.52990
C         14.52850       12.25860       -4.15280
C         14.57990       12.53470       -5.59140
C         13.37730       12.25030       -6.13590
C         12.51160       11.78200       -5.05990
C         13.20000       11.68870       -3.91090
C         12.67140       11.12830       -2.72770
N         12.22910       10.64960       -1.76500
C         13.14540       12.20690       -7.56610
C         11.93570       12.17970       -8.15670
C         11.71960       12.12060       -9.57840
S         13.09100       12.14890      -10.66960
C         12.16920       12.78040      -11.94420
C         10.83690       12.73430      -11.63360
C         10.54150       12.10400      -10.34190
C          9.19480       11.79070       -9.93780
C          8.24220       12.34740      -10.88340
C          8.60450       13.02180      -12.10750
C          9.91500       13.21840      -12.54860
N          6.84470       12.06500      -10.77160
C          8.81030       10.90060       -8.79420
C          9.62240       10.08360       -8.07200
C          8.83460        9.30490       -7.10500
C          7.44060        9.63020       -7.38350
C          7.44600       10.60670       -8.30940
C          6.28030        9.17730       -6.70700
N          5.32930        8.80970       -6.15800
C          9.31570        8.51610       -6.11740
C          8.56120        7.51450       -5.36490
C          9.36980        6.99630       -4.41130
C         10.62070        7.74700       -4.42710
C         10.66240        8.46280       -5.56110
C         11.87080        8.81740       -6.17040
N         12.89940        9.02480       -6.69170
C          9.19210        5.63320       -3.94640
C          9.54560        5.12750       -2.75710
C          9.53800        3.74000       -2.52060
S         11.12790        3.03570       -2.43860
C         10.53170        1.55370       -3.00740
C          9.15820        1.56070       -2.99640
C          8.55650        2.76490       -2.41500
C          7.14930        2.90030       -2.13540
C          6.45500        1.76070       -2.70390
C          7.09990        0.63610       -3.35810
C          8.48010        0.46470       -3.49200
N          5.04620        1.60020       -2.53850
C          6.50110        3.96100       -1.26340
C          7.11750        4.92680       -0.52620
C          6.12290        5.70270        0.25100
C          4.87670        5.02700        0.06080
C          5.06500        4.06570       -0.86170
C          3.60860        5.33440        0.84050
N          2.55660        5.58940        1.48730
C          6.16070        6.94870        0.76620
C          5.13750        7.68320        1.49920
C          5.22240        8.99840        1.19200
C          6.42740        9.16710        0.38870
C          7.01480        7.96460        0.24500
C          8.30220        7.65590       -0.50180
N          9.37010        7.39980       -1.12140
C          4.16010        9.89540        1.59140
C          3.92820       11.17740        1.24660
C          2.61700       11.75290        1.45470
S          1.24240       10.66940        1.19600
C          0.08920       11.89240        1.31500
C          0.68470       13.10120        1.53250
C          2.14330       13.04790        1.70190
C          2.88870       14.23490        1.98810
C          2.04190       15.41190        2.04150
C          0.62990       15.39710        1.78710
C         -0.11440       14.23640        1.56710
N          2.61900       16.71570        2.15630
C          4.31480       14.28250        2.35580
C          5.16830       15.22650        1.89540
C          6.43100       15.15570        2.63720
C          6.28940       13.97830        3.50560
C          5.03570       13.50610        3.36090
C          7.26130       13.40110        4.35490
N          8.07450       12.92340        5.03140
C          7.43680       16.05980        2.56150
C          8.69540       16.02290        3.31470
C          9.41820       17.12960        3.01860
C          8.66320       17.91380        2.06280
C          7.49830       17.29310        1.77460
C          6.53950       17.84080        0.89330
N          5.75230       18.30180        0.16670
C         10.71960       17.39380        3.59750
C         11.52250       18.42150        3.27280
C         12.83370       18.57820        3.82600
S         13.39950       20.19970        4.11570
C         14.89950       19.67850        4.75830
C         14.99820       18.31300        4.73430
C         13.83210       17.67750        4.17190
C         13.73580       16.28650        4.00680
C         14.87230       15.57890        4.45740
C         15.98880       16.23430        5.07190
C         16.12180       17.63580        5.20640
N         14.80300       14.17230        4.50450
H         16.93770       12.42910       -0.31130
H         14.78230       11.56980       -1.36710
H         18.30920       13.77550       -2.11740
H         15.40190       12.88910       -6.10500
H         11.51070       11.55430       -5.16650
H         13.97410       12.19610       -8.18110
H         11.10400       12.20270       -7.54630
H         12.55690       13.14700      -12.82760
H          7.84040       13.38460      -12.69880
H         10.16560       13.66770      -13.44330
H          6.49740       11.60680       -9.97250
H          6.22990       12.32890      -11.49390
H         10.64610       10.01920       -8.18620
H          6.59810       11.09240       -8.64130
H          7.57850        7.24790       -5.53260
H         11.34680        7.73030       -3.69400
H          8.74260        4.97940       -4.60640
H          9.82920        5.76810       -1.99930
H         11.11600        0.76140       -3.31690
H          6.49000       -0.09500       -3.75610
H          8.93090       -0.36700       -3.90450
H          4.51750        2.30870       -2.10520
H          4.60320        0.78090       -2.85760
H          8.13560        5.09470       -0.51130
H          4.31120        3.47390       -1.24460
H          4.45490        7.26560        2.15090
H          6.77160       10.05760       -0.00330
H          3.47090        9.48940        2.24350
H          4.68380       11.74720        0.83520
H         -0.92930       11.74710        1.23440
H          0.13310       16.30140        1.76540
H         -1.13900       14.22370        1.44460
H          3.58300       16.81370        2.33070
H          2.05230       17.51510        2.06100
H          4.96160       15.89510        1.13690
H          4.64130       12.70960        3.88530
H          8.98330       15.27490        3.96480
H          8.96990       18.81370        1.66140
H         11.05840       16.73840        4.31910
H         11.18090       19.12460        2.59910
H         15.63240       20.31060        5.11640
H         12.91080       15.82370        3.59420
H         16.74870       15.64230        5.44210
H         16.95130       18.10160        5.60630
H         14.04440       13.70260        4.08840
H         15.51330       13.65920        4.95340
