242
630_466_01010101.out	Energy:   -6276.2612614
C         -4.80440        4.84120        5.07660
C         -3.46810        4.94610        4.85630
C         -2.76530        4.63050        6.08190
C         -3.81120        4.33280        7.07200
C         -5.02520        4.46340        6.45010
C         -3.61910        4.00970        8.42320
N         -3.50080        3.76500        9.54610
C         -1.40680        4.58860        6.28670
C         -0.71470        4.21200        7.47740
C          0.64600        4.24990        7.25070
C          0.85590        4.68830        5.87180
C         -0.35340        4.89450        5.28800
C         -0.55870        5.33770        3.96610
N         -0.69160        5.70570        2.88120
C          1.64760        3.87190        8.18690
C          2.98760        3.85690        7.95870
C          3.97320        3.43920        8.92930
C          3.69310        2.51250        9.93550
C          4.62530        2.31740       11.01550
C          5.93470        2.91430       10.91640
C          6.21160        3.77770        9.81270
C          5.26320        4.05040        8.88080
C          6.90010        2.61950       11.86340
C          6.63280        1.76800       12.95560
C          5.29010        1.27010       13.12310
C          4.98170        0.50300       14.25040
C          5.96220        0.14890       15.18450
C          7.32610        0.56300       14.96100
C          7.61870        1.38710       13.86670
C          8.32170        0.13690       15.85860
C          8.01440       -0.62850       16.97460
C          6.64480       -0.98680       17.23250
C          5.65900       -0.60720       16.33220
C          6.34600       -1.72830       18.41420
C          7.33280       -2.10090       19.27490
C          8.68640       -1.76910       19.00700
C          9.01690       -1.05970       17.89310
C          4.32960        1.54480       12.12960
C          2.55650        1.61400        9.84180
C          2.26010        0.91700        8.71840
C          1.23010       -0.06780        8.64290
C          1.04820       -0.98300        7.62470
C         -0.05540       -1.82700        7.94450
C         -0.57680       -1.34330        9.24270
C          0.20420       -0.30630        9.65110
C         -1.67460       -1.86160        9.95590
N         -2.56500       -2.27620       10.56160
C         -0.54440       -2.90540        7.23430
C         -1.66140       -3.70880        7.58580
C         -1.84870       -4.69070        6.63130
C         -0.80070       -4.53290        5.62950
C         -0.02300       -3.46630        5.96770
C          1.08600       -2.98120        5.24870
N          1.99430       -2.59670        4.65050
C         -2.90050       -5.65740        6.59840
C         -3.94080       -5.56340        7.46850
C         -5.11740       -6.37910        7.57870
C         -6.19780       -5.91240        8.33600
C         -7.40900       -6.67350        8.41300
C         -7.50990       -7.90910        7.67650
C         -6.38640       -8.33860        6.90550
C         -5.24140       -7.61290        6.86810
C         -8.67070       -8.65860        7.74400
C         -9.76910       -8.25850        8.53390
C         -9.65870       -7.04200        9.30040
C        -10.72760       -6.64330       10.10730
C        -11.90450       -7.39560       10.18810
C        -12.01580       -8.61170        9.41940
C        -10.94260       -9.00920        8.61160
C        -13.19990       -9.36580        9.50730
C        -14.25690       -8.96810       10.31470
C        -14.14590       -7.75490       11.08070
C        -12.98360       -7.00120       11.00100
C        -15.24400       -7.36510       11.90430
C        -16.37370       -8.12180       11.96790
C        -16.48310       -9.31840       11.21260
C        -15.46030       -9.72800       10.41280
C         -8.47230       -6.28820        9.21950
C         -6.10370       -4.60290        8.98110
C         -6.95160       -3.58170        8.73130
C         -6.74520       -2.23530        9.17350
C         -7.48380       -1.14450        8.77120
C         -6.90570        0.04460        9.31420
C         -5.74400       -0.39770       10.11550
C         -5.66040       -1.75310       10.02400
C         -4.86690        0.43310       10.84260
N         -4.13940        1.09240       11.44800
C         -7.31560        1.34490        9.10840
C         -6.73180        2.53680        9.62770
C         -7.45230        3.62900        9.18170
C         -8.53480        3.13330        8.33880
C         -8.46890        1.77560        8.28590
C         -9.34940        0.94290        7.56880
N        -10.08750        0.29170        6.96700
C         -7.25350        5.01390        9.45510
C         -6.25940        5.48850       10.25330
C         -6.01000        6.86860       10.57080
C         -4.86160        7.23810       11.28570
C         -4.63420        8.62150       11.61730
C         -5.65750        9.59390       11.32100
C         -6.82910        9.16060       10.63150
C         -6.97750        7.86970       10.24530
C         -5.47980       10.92100       11.66800
C         -4.29800       11.37440       12.28940
C         -3.23710       10.42480       12.51260
C         -2.04190       10.86020       13.08900
C         -1.85630       12.19410       13.47140
C         -2.92160       13.14260       13.25380
C         -4.11400       12.70590       12.66290
C         -2.73140       14.48100       13.64240
C         -1.54800       14.90580       14.23060
C         -0.48600       13.95970       14.44880
C         -0.66080       12.63690       14.06700
C          0.72060       14.41750       15.05730
C          0.86810       15.71980       15.42540
C         -0.17920       16.65300       15.20980
C         -1.34750       16.26020       14.63170
C         -3.43620        9.07690       12.15070
C         -3.89410        6.23260       11.68350
C         -3.30070        6.17770       12.90100
C         -2.28310        5.24590       13.26720
C         -1.55630        5.29090       14.44080
C         -0.50000        4.33740       14.37420
C         -0.68130        3.61780       13.09600
C         -1.74950        4.16210       12.44850
C          0.07050        2.50120       12.69730
N          0.69070        1.57490       12.39570
C          0.55140        4.18590       15.25540
C          1.78800        3.50830       15.03720
C          2.59990        3.67940       16.13950
C          1.85410        4.44770       17.12920
C          0.64430        4.78380       16.60280
C         -0.35870        5.53170       17.24950
N         -1.16090        6.15390       17.79710
C          3.96480        3.27300       16.26950
C          4.64240        3.26300       17.44080
C          6.05690        2.97250       17.57720
C          6.56620        2.36190       18.71460
C          7.98230        2.17320       18.86050
C          8.86370        2.65580       17.82670
C          8.29270        3.29290       16.68380
C          6.94910        3.42310       16.55580
C         10.23030        2.46390       17.93560
C         10.79850        1.77980       19.02940
C          9.92090        1.28390       20.06040
C         10.46420        0.57880       21.13780
C         11.83890        0.33980       21.23870
C         12.71700        0.83880       20.20790
C         12.17150        1.54830       19.13160
C         14.09860        0.59240       20.31300
C         14.63130       -0.11670       21.38010
C         13.75540       -0.61420       22.40820
C         12.39160       -0.37750       22.31640
C         14.32500       -1.34040       23.49670
C         15.66640       -1.56040       23.56520
C         16.53020       -1.07020       22.55100
C         16.03050       -0.37230       21.49450
C          8.53400        1.50000       19.94180
C          5.66660        1.86090       19.75920
C          4.54020        1.19410       19.52050
H         -5.59420        5.00780        4.35970
H         -2.98700        5.20900        3.92870
H         -5.99290        4.31330        6.90470
H         -1.18840        3.91660        8.39940
H          1.81990        4.82530        5.40590
H          1.27570        3.54720        9.15520
H          3.37660        4.26520        7.02970
H          7.19760        4.22440        9.74350
H          5.47250        4.74020        8.07030
H          7.89360        3.04490       11.76300
H          3.96290        0.15830       14.39440
H          8.63770        1.73210       13.72300
H          9.35160        0.42690       15.67650
H          4.62880       -0.89840       16.51040
H          5.31080       -1.98500       18.61310
H          7.09730       -2.65880       20.17420
H          9.45330       -2.08280       19.70660
H         10.04970       -0.79770       17.68910
H          3.33690        1.13130       12.26540
H          2.01580        1.39680       10.75560
H          2.86100        1.05940        7.82380
H          1.65150       -1.06600        6.73510
H          0.08460        0.25880       10.56250
H         -2.25500       -3.55890        8.47080
H         -0.68620       -5.16230        4.75970
H         -2.85900       -6.42550        5.83280
H         -3.91440       -4.71940        8.14900
H         -6.46850       -9.26820        6.35220
H         -4.39650       -7.96170        6.28510
H         -8.73900       -9.58790        7.18730
H        -10.64390       -5.72720       10.68340
H        -11.02650       -9.92480        8.03470
H        -13.28310      -10.28070        8.92910
H        -12.89790       -6.08580       11.57780
H        -15.15650       -6.44970       12.48020
H        -17.20420       -7.82010       12.59630
H        -17.39470       -9.90150       11.28260
H        -15.54120      -10.64230        9.83420
H         -8.39440       -5.39070        9.82350
H         -5.23560       -4.42940        9.61020
H         -7.79690       -3.73820        8.06600
H         -8.34830       -1.17370        8.12860
H         -4.90600       -2.37020       10.48800
H         -5.86000        2.56380       10.26050
H         -9.26200        3.76280        7.84820
H         -7.95460        5.69180        8.97750
H         -5.58390        4.76310       10.69310
H         -7.59750        9.89370       10.41010
H         -7.87570        7.57580        9.71500
H         -6.26020       11.64020       11.44030
H         -1.24250       10.14540       13.25740
H         -4.91400       13.42010       12.49560
H         -3.53330       15.19380       13.47780
H          0.13920       11.92190       14.23110
H          1.51910       13.70140       15.22090
H          1.78750       16.06060       15.88830
H         -0.03420       17.68400       15.51290
H         -2.15030       16.97110       14.46570
H         -2.60440        8.39480       12.28570
H         -3.65890        5.46420       10.95390
H         -3.58770        6.88680       13.67340
H         -1.69880        5.99920       15.24090
H         -2.15980        3.83480       11.50500
H          2.05840        2.99220       14.13010
H          2.22230        4.72490       18.10520
H          4.45390        2.94020       15.35780
H          4.11210        3.48360       18.36350
H          8.95930        3.65950       15.91050
H          6.52870        3.91170       15.68380
H         10.88400        2.82810       17.14930
H          9.80310        0.20320       21.91250
H         12.83140        1.92110       18.35460
H         14.75820        0.96790       19.53700
H         11.72920       -0.75230       23.09050
H         13.66180       -1.71360       24.27010
H         16.09240       -2.11270       24.39540
H         17.59470       -1.26060       22.63130
H         16.68810        0.00370       20.71770
H          7.89430        1.09840       20.71960
H          5.97110        2.04460       20.78610
H          4.21890        0.94070       18.51890
H          3.90550        0.84540       20.32340
