122
630_1002_01010101.out	Energy:   -3204.9303499
C         -1.09000       -2.84930        0.38650
C         -1.05750       -1.83280       -0.51040
C         -2.01800       -0.82480       -0.10810
C         -2.63650       -1.33510        1.12790
C         -2.06900       -2.54610        1.40750
C         -3.63280       -0.69390        1.88710
N         -4.44980       -0.18360        2.52200
C         -2.30720        0.35870       -0.74200
C         -3.26420        1.34540       -0.35490
C         -3.26210        2.37760       -1.27550
C         -2.26310        2.05750       -2.29500
C         -1.68870        0.86540       -1.99040
C         -0.67720        0.23270       -2.74160
N          0.14980       -0.25600       -3.37920
C         -4.09020        3.52620       -1.23460
C         -4.09790        4.51590       -2.18260
C         -4.92870        5.66100       -2.17930
C         -5.84130        6.00270       -1.21100
C         -6.64790        7.15550       -1.29970
C         -7.54970        7.51130       -0.32730
C         -8.39070        8.64390       -0.37640
C         -9.28600        9.03780        0.61610
C         -9.95490       10.21300        0.20640
C         -9.42350       10.54410       -1.13380
C         -8.49250        9.60750       -1.46510
C         -9.80390       11.63750       -1.93650
N        -10.09870       12.52450       -2.61260
C        -10.91690       10.93760        0.90360
C        -11.59270       12.10260        0.48330
C        -12.46830       12.51770        1.48800
C        -12.34150       11.57540        2.59330
C        -11.42570       10.62670        2.25930
C        -11.03230        9.54380        3.07010
N        -10.73010        8.66590        3.75420
C        -13.33730       13.62580        1.49850
C        -13.49690       14.50650        0.45080
C        -14.37450       15.60030        0.50010
C        -14.55420       16.45770       -0.56630
C        -15.41190       17.57200       -0.60480
C        -16.17820       18.03610        0.44250
C        -17.03390       19.15120        0.37760
C        -17.78540       19.66150        1.43960
C        -18.52080       20.78060        0.99980
C        -18.19430       20.95240       -0.43290
C        -17.30720       19.98250       -0.78740
C        -18.70460       21.94580       -1.29200
N        -19.10820       22.74750       -2.01650
C        -19.37860       21.58830        1.74410
C        -20.12020       22.70100        1.29930
C        -20.83970       23.23550        2.37030
C        -20.54050       22.42510        3.54410
C        -19.67530       21.43760        3.18720
C        -19.15370       20.45290        4.04880
N        -18.74190       19.65850        4.77670
C        -21.70540       24.34650        2.38710
C        -22.02570       25.10970        1.28640
C        -22.88890       26.21600        1.35210
C        -23.22620       26.96430        0.24500
C        -24.07700       28.08800        0.22560
C        -24.68000       28.65720        1.32280
C        -25.53370       29.77960        1.28250
C        -26.13840       30.37630        2.38590
C        -26.93540       31.46500        1.95620
C        -26.79130       31.52240        0.48520
C        -25.95520       30.52010        0.09950
C        -27.40340       32.45220       -0.37900
N        -27.88890       33.20000       -1.11060
C        -27.70930       32.31350        2.73420
C        -28.53790       33.37740        2.29720
C        -29.14940       33.96420        3.39480
C        -28.69200       33.25620        4.58570
C        -27.83520       32.26900        4.20960
C        -27.18030       31.37290        5.07620
N        -26.65230       30.65260        5.80640
C        -30.06560       35.04920        3.43190
C        -30.51810       35.71900        2.33250
C        -31.44330       36.79760        2.40600
C        -31.90790       37.45140        1.30990
C        -32.84890       38.53580        1.37700
C        -33.32550       39.16120        0.29430
H         -0.49510       -3.75000        0.36760
H         -0.43190       -1.76340       -1.38480
H         -2.30170       -3.18340        2.24700
H         -3.89400        1.28540        0.51770
H         -2.02560        2.67660       -3.14660
H         -4.76500        3.59090       -0.38550
H         -3.42230        4.42780       -3.02870
H         -4.82610        6.32680       -3.03280
H         -5.96490        5.37400       -0.33340
H         -6.53800        7.77750       -2.18380
H         -7.63330        6.88310        0.55630
H         -9.44080        8.52390        1.55070
H         -7.92420        9.57340       -2.38180
H        -11.44890       12.59150       -0.46590
H        -12.89780       11.63940        3.51600
H        -13.92340       13.78480        2.40030
H        -12.92820       14.35500       -0.46260
H        -14.93190       15.75570        1.41980
H        -13.98950       16.25380       -1.47280
H        -15.45440       18.10710       -1.54910
H        -16.13020       17.52810        1.40200
H        -17.79490       19.25840        2.43910
H        -16.87770       19.84260       -1.76730
H        -20.12480       23.07760        0.28990
H        -20.95290       22.59850        4.52650
H        -22.14960       24.60980        3.34400
H        -21.60150       24.85490        0.31900
H        -23.29970       26.47250        2.32490
H        -22.80570       26.66360       -0.71150
H        -24.25400       28.53280       -0.74950
H        -24.50140       28.23430        2.30780
H        -26.02120       30.05410        3.40770
H        -25.65160       30.30150       -0.91270
H        -28.66930       33.66970        1.26870
H        -28.99880       33.49540        5.59270
H        -30.42410       35.35030        4.41320
H        -30.17210       35.42920        1.34400
H        -31.78750       37.09590        3.39360
H        -31.56670       37.15150        0.32210
H        -33.17510       38.84020        2.36840
H        -33.02460       38.88230       -0.70710
H        -34.03530       39.97270        0.36960
