174
630_288_01010101.out	Energy:   -4434.2900253
C        -16.36990       27.73660       17.65250
C        -17.21780       26.83810       18.18650
C        -17.20420       25.63100       17.34090
C        -16.26150       25.94230       16.25170
C        -15.78750       27.18420       16.45390
C        -15.90130       25.14410       15.14450
N        -15.60290       24.49620       14.22910
C        -17.90370       24.49160       17.56230
C        -17.83320       23.24610       16.76820
C        -18.62060       22.31120       17.34320
C        -19.25810       22.93570       18.50290
C        -18.84460       24.20550       18.65310
C        -19.27050       25.04070       19.71600
N        -19.61990       25.71000       20.59250
C        -18.73070       20.90740       16.97210
C        -19.87500       20.32540       16.55760
C        -20.19720       18.90130       16.84360
C        -20.17740       17.75460       16.01160
O        -19.74850       17.67410       14.71340
C        -19.86170       18.80630       13.86290
C        -20.06880       18.28840       12.44480
C        -20.59180       16.49250       16.54170
C        -21.04410       16.39750       17.86590
C        -21.06110       17.51670       18.68360
C        -20.63800       18.74230       18.17870
C        -20.56040       15.21930       15.77920
C        -21.63020       14.71030       15.14350
C        -21.65840       13.44470       14.43090
C        -22.46490       13.22370       13.36900
C        -22.24540       11.86150       12.84960
C        -21.29080       11.25560       13.79230
C        -20.96830       12.18950       14.71090
C        -20.78790        9.93340       13.81060
N        -20.35450        8.85710       13.84680
C        -22.78160       11.37840       11.69760
C        -22.46280       10.10600       11.01580
C        -23.01350       10.12240        9.77460
C        -23.81380       11.32700        9.66850
C        -23.70840       12.06330       10.78210
C        -24.40480       13.27460       10.95810
N        -24.99840       14.27470       11.08650
C        -22.78200        9.20700        8.67790
C        -23.32800        7.99710        8.45600
C        -23.05830        7.26050        7.19750
C        -21.95670        6.43990        6.82060
O        -20.85160        6.08370        7.54660
C        -20.65710        6.06820        8.95670
C        -20.59360        7.42580        9.60490
C        -21.88970        5.95940        5.46120
C        -22.93080        6.27430        4.56640
C        -23.99450        7.07090        4.93680
C        -24.05350        7.55500        6.23190
C        -20.74830        5.14240        4.92450
C        -20.56670        4.85570        3.61760
C        -19.50320        4.10420        3.00220
C        -18.81290        3.10670        3.58580
C        -17.79790        2.62930        2.64260
C        -18.04300        3.34440        1.39200
C        -19.06520        4.18880        1.60850
C        -17.44040        3.12820        0.12820
N        -16.95140        2.94260       -0.90940
C        -16.80090        1.78910        2.97560
C        -15.56800        1.56180        2.21290
C        -14.70240        0.91950        3.02460
C        -15.41420        0.53860        4.23930
C        -16.64750        1.05370        4.23190
C        -17.59320        0.80600        5.24960
N        -18.35690        0.61090        6.10240
C        -13.32090        0.62020        2.73360
C        -12.42180        0.55550        3.73600
C        -11.01970        0.10100        3.68420
C         -9.97530        0.46890        4.57580
O         -9.96510        1.40890        5.57450
C        -11.07600        2.20220        5.96300
C        -11.88130        1.50170        7.04860
C         -8.72100       -0.19590        4.46360
C         -8.52390       -1.20090        3.50410
C         -9.54200       -1.55660        2.63830
C        -10.76970       -0.91530        2.73270
C         -7.52890        0.12830        5.27380
C         -7.15710       -0.55360        6.37100
C         -5.85460       -0.38200        6.97760
C         -5.61850       -0.08980        8.27670
C         -4.16070        0.00000        8.48560
C         -3.56300       -0.31610        7.17510
C         -4.56700       -0.53520        6.31130
C         -2.19980       -0.37740        6.80180
N         -1.08110       -0.42300        6.49410
C         -3.53000        0.31320        9.64130
C         -2.08040        0.36150        9.82450
C         -1.78880        0.66520       11.10830
C         -3.05520        0.89350       11.79080
C         -4.08460        0.67750       10.95000
C         -5.43950        0.83820       11.31510
N         -6.54900        0.97470       11.62620
C         -0.44600        0.82180       11.64090
C          0.63510        0.27230       11.05620
C          2.06180        0.42290       11.42350
C          3.08400       -0.57740       11.37170
O          2.94720       -1.90890       10.98550
C          1.82610       -2.22290       10.16540
C          1.90340       -3.54280        9.42090
C          4.40440       -0.21460       11.76550
C          4.70640        1.11580       12.10790
C          3.72590        2.09350       12.08990
C          2.42340        1.74560       11.75900
C          5.53790       -1.14840       11.87510
C          6.47310       -1.27990       10.92550
H        -16.16850       28.67200       18.03910
H        -17.78070       26.97140       19.04110
H        -15.11020       27.66860       15.84420
H        -17.27240       23.11260       15.91220
H        -19.93490       22.46390       19.12290
H        -17.88240       20.32250       17.02980
H        -20.55280       20.88960       16.02160
H        -18.96760       19.39200       13.91190
H        -20.68070       19.42570       14.16350
H        -19.23960       17.67250       12.16530
H        -20.14200       19.11560       11.77010
H        -20.97020       17.71330       12.40320
H        -21.36620       15.48870       18.23370
H        -21.38550       17.44140       19.66040
H        -20.64600       19.56560       18.80090
H        -19.67110       14.69760       15.73470
H        -22.50140       15.26310       15.16340
H        -23.13420       13.90620       12.98010
H        -20.32310       12.03740       15.50190
H        -21.91170        9.33160       11.41770
H        -24.38570       11.58180        8.84800
H        -22.10450        9.52610        7.96780
H        -23.94220        7.57650        9.17080
H        -19.73750        5.56020        9.15950
H        -21.51320        5.57840        9.37140
H        -19.75020        7.96350        9.22470
H        -20.49540        7.31100       10.66420
H        -21.49000        7.96760        9.38640
H        -22.89690        5.89830        3.60590
H        -24.73600        7.30250        4.25740
H        -24.85030        8.15160        6.50430
H        -20.05810        4.77650        5.59890
H        -21.28500        5.22390        2.97450
H        -18.97180        2.73980        4.53720
H        -19.48140        4.80750        0.89510
H        -15.39480        1.84180        1.23490
H        -15.02220       -0.04440        4.99530
H        -13.02180        0.45590        1.75970
H        -12.75880        0.86460        4.66120
H        -11.70340        2.36940        5.11240
H        -10.71690        3.13420        6.34690
H        -12.24580        0.56750        6.67560
H        -12.70760        2.11870        7.33400
H        -11.25630        1.32660        7.89930
H         -7.61120       -1.67880        3.44410
H         -9.39060       -2.29110        1.92930
H        -11.52600       -1.18950        2.08640
H         -6.94590        0.92730        4.97950
H         -7.82140       -1.22060        6.79390
H         -6.33930        0.04760        9.00250
H         -4.44450       -0.77800        5.31570
H         -1.38340        0.18910        9.08320
H         -3.15000        1.18000       12.77770
H         -0.31590        1.37630       12.50150
H          0.44410       -0.33470       10.24370
H          1.72020       -1.44270        9.44090
H          0.99380       -2.31280       10.83190
H          2.72250       -3.51680        8.73290
H          0.99180       -3.70350        8.88420
H          2.05050       -4.33890       10.12050
H          5.67100        1.36650       12.37590
H          3.96120        3.07150       12.32040
H          1.69590        2.47760       11.75810
H          5.61530       -1.72940       12.72450
H          6.41950       -0.71090       10.06610
H          7.24740       -1.95020       11.05310
