134
630_1095_01010101.out	Energy:   -7058.7647340
C         12.03030       10.41050      -12.84470
C         11.01330        9.55940      -12.61870
C          9.90120       10.32380      -12.04080
C         10.38610       11.71580      -11.95360
C         11.64220       11.73940      -12.43410
C          9.71750       12.86690      -11.46960
N          9.17660       13.81110      -11.07480
C          8.70210        9.81740      -11.68070
C          7.59730       10.58370      -11.10360
C          6.55480        9.75650      -10.89210
C          6.95500        8.41680      -11.29290
C          8.21330        8.43540      -11.76660
C          8.87750        7.28160      -12.24080
N          9.40690        6.32510      -12.63140
C          5.32070       10.20240      -10.30000
C          4.13380        9.62080      -10.52260
C          2.96570       10.17820       -9.96680
S          2.02670       11.36400      -10.77670
C          0.84970       11.45710       -9.51080
C          1.23580       10.57730       -8.54650
C          2.40500        9.84990       -8.76530
S          2.89620        8.68350       -7.47690
C          1.44980        9.21220       -6.63490
C          1.09230        8.67400       -5.35630
N          0.77730        8.24730       -4.32430
C          0.68030       10.17490       -7.29940
C         -0.25490       12.33630       -9.61380
C         -0.82440       12.88130       -8.52070
C         -1.95610       13.69950       -8.94020
C         -1.97400       13.62800      -10.40700
C         -0.96740       12.82180      -10.78520
C         -2.85150       14.25820      -11.31780
N         -3.57290       14.77060      -12.06910
C         -2.78260       14.34740       -8.09690
C         -3.92310       15.16040       -8.49760
C         -4.51120       15.64630       -7.38830
C         -3.77840       15.16330       -6.22960
C         -2.75630       14.39530       -6.62860
C         -1.86940       13.77380       -5.72220
N         -1.14360       13.25650       -4.97780
C         -5.65890       16.50450       -7.43840
C         -6.25250       17.02700       -6.35580
C         -7.35680       17.90350       -6.45150
S         -8.08200       18.41790       -7.92180
C         -9.25630       19.39660       -7.14120
C         -9.03730       19.30070       -5.80500
C         -7.99130       18.48220       -5.38420
S         -7.71400       18.37530       -3.59930
C         -9.06370       19.48360       -3.46060
C         -9.52130       19.93910       -2.18090
N         -9.90840       20.32950       -1.16070
C         -9.64680       19.89000       -4.66540
C        -10.20150       20.09480       -7.91490
C        -11.44690       20.34780       -7.46560
C        -12.14850       21.11750       -8.48380
C        -11.23430       21.27080       -9.52830
C        -10.07580       20.67180       -9.23790
C        -11.46090       22.12790      -10.76310
N        -11.64880       22.83880      -11.78740
C        -13.40790       21.52840       -8.59380
C        -14.09420       22.39350       -9.54340
C        -15.41630       22.33410       -9.28890
C        -15.61140       21.43480       -8.16960
C        -14.40920       20.98990       -7.78010
C        -14.18650       20.11730       -6.55560
N        -14.00180       19.39350       -5.53980
C        -16.41780       23.04660      -10.02600
C        -16.39730       24.37740      -10.18780
C        -17.41860       25.00270      -10.92480
S        -18.89420       25.51550      -10.22450
C        -19.52500       26.11360      -11.72350
C        -18.56840       25.90100      -12.66940
C        -17.38430       25.28850      -12.26020
S        -16.12530       25.00480      -13.52360
C        -17.26760       25.73900      -14.63480
C        -16.95780       25.88880      -16.02580
N        -16.73240       26.00990      -17.15770
C        -18.48340       26.14940      -14.07000
C        -20.81020       26.70570      -11.76750
C        -21.10590       27.68680      -12.64230
C        -22.48330       28.11800      -12.42120
C        -22.98510       27.28050      -11.32180
C        -21.98710       26.46290      -10.94660
C        -24.26530       27.27010      -10.72570
N        -25.31510       27.25230      -10.23220
C        -23.09860       29.10110      -13.10900
C        -24.46300       29.56360      -12.88760
C        -24.72460       30.56630      -13.75090
C        -23.54080       30.78790      -14.56260
C        -22.57260       29.93290      -14.19910
C        -21.29760       29.91130      -14.80790
N        -20.24860       29.88650      -15.30200
C        -25.98620       31.25640      -13.76850
C        -26.30820       32.25660      -14.60280
C        -27.56430       32.91730      -14.54230
S        -28.82670       32.57140      -13.40440
C        -29.86060       33.79480      -14.00820
C        -29.22840       34.39950      -15.03500
C        -27.95530       33.94130      -15.36990
S        -27.14720       34.77850      -16.75620
C        -28.60070       35.76590      -16.83170
C        -28.73510       36.80960      -17.80320
N        -28.86850       37.66270      -18.57830
C        -29.59360       35.46310      -15.88920
H         12.94480       10.15390      -13.24850
H         11.01470        8.54660      -12.81680
H         12.23800       12.57950      -12.49930
H          7.61380       11.59380      -10.89270
H          6.36080        7.57590      -11.22380
H          5.35170       11.01720       -9.66740
H          4.07590        8.76700      -11.09950
H         -0.20200       10.55500       -6.92230
H         -0.51110       12.74250       -7.54730
H         -0.73440       12.58270      -11.76170
H         -4.22860       15.33450       -9.46780
H         -4.01070       15.37950       -5.24760
H         -6.05210       16.73400       -8.36460
H         -5.89070       16.78080       -5.42110
H        -10.43830       20.54990       -4.72050
H        -11.83570       20.04810       -6.55780
H         -9.24280       20.62810       -9.84560
H        -13.64540       22.95520      -10.28370
H        -16.51790       21.18140       -7.74630
H        -17.19020       22.51080      -10.45180
H        -15.63690       24.93920       -9.77410
H        -19.24210       26.58820      -14.61490
H        -20.46350       28.07100      -13.35280
H        -22.04640       25.76550      -10.18820
H        -25.11990       29.18650      -12.18660
H        -23.45690       31.49700      -15.30760
H        -26.70030       30.95870      -13.08550
H        -25.62070       32.55590      -15.31190
H        -30.80010       34.02820      -13.65040
H        -30.49390       35.96350      -15.82650
