118
630_507_01010101.out	Energy:   -4792.7484293
C          6.44650       10.89950       -7.06500
C          5.78990       11.68340       -6.19160
C          4.35950       11.36350       -6.28040
C          4.25880       10.30630       -7.30300
C          5.50050       10.05050       -7.75020
C          3.10800        9.63850       -7.78080
N          2.16660        9.08690       -8.17900
C          3.37630       11.93970       -5.55490
C          1.95270       11.61830       -5.63790
C          1.28480       12.36650       -4.73840
C          2.24220       13.23230       -4.06920
C          3.47780       12.98710       -4.53500
C          4.62180       13.67020       -4.07020
N          5.55370       14.24130       -3.67520
C         -0.14300       12.30660       -4.57660
C         -0.76140       12.57810       -3.41920
C         -2.17250       12.49420       -3.29940
C         -3.08610       11.69450       -3.95990
C         -4.42100       11.90860       -3.52320
C         -4.51300       12.87870       -2.54400
S         -2.96340       13.50850       -2.16740
C         -5.65700       13.36040       -1.86540
C         -6.72780       12.57340       -1.63320
C         -7.73300       13.36180       -0.92380
C         -7.13960       14.69780       -0.75550
C         -5.91890       14.67660       -1.31170
C         -7.67640       15.84370       -0.13270
N         -8.11270       16.79230        0.37580
C         -8.93990       12.90920       -0.52960
C         -9.94340       13.71240        0.15570
C        -11.02890       12.95000        0.38910
C        -10.75200       11.61080       -0.10580
C         -9.53400       11.57360       -0.67220
C         -8.99730       10.41820       -1.28490
N         -8.56600        9.46830       -1.79220
C        -12.21810       13.39590        1.06600
C        -12.67230       14.65700        1.01130
C        -13.86780       15.04590        1.66480
C        -15.00010       14.31690        1.96910
C        -15.98740       15.09440        2.63260
C        -15.60150       16.41040        2.81950
S        -14.03930       16.67560        2.16600
C        -16.29950       17.47680        3.44110
C        -17.18880       17.24520        4.43120
C        -17.75850       18.52150        4.85390
C        -17.09690       19.53100        4.01250
C        -16.24170       18.91270        3.18910
C        -17.38700       21.02270        4.04500
N        -17.62770       22.26020        4.07190
C        -18.69720       18.68420        5.81140
C        -19.27020       19.95980        6.24130
C        -20.18010       19.72750        7.20710
C        -20.22520       18.29360        7.44460
C        -19.36330       17.66360        6.63160
C        -19.20360       16.26070        6.62150
N        -19.08260       15.10450        6.61510
C        -20.93680       20.77790        7.83620
C        -21.85160       20.57080        8.79470
C        -22.56780       21.65310        9.36860
C        -22.19400       22.97110        9.54100
C        -23.19990       23.75100       10.17190
C        -24.33520       23.02170       10.47750
S        -24.14480       21.38630        9.98470
C        -25.53750       23.44340       11.10290
C        -25.99150       24.70950       10.99290
C        -27.24210       24.82680       11.74800
C        -27.48110       23.49170       12.31810
C        -26.47250       22.69480       11.92730
C        -28.54180       23.05110       13.13670
N        -29.41380       22.67960       13.81120
C        -27.98080       25.95100       11.85890
C        -29.23020       26.08370       12.60650
C        -29.68690       27.34540       12.46800
C        -28.74490       28.07750       11.63940
C        -27.73310       27.27550       11.27490
C        -26.65630       27.72060       10.47790
N        -25.77590       28.10370        9.82690
C        -30.90710       27.80890       13.07450
C        -31.40740       29.04740       12.93780
C        -32.62910       29.44270       13.55580
C        -32.98510       30.70810       13.99430
C        -34.28920       30.75160       14.56900
C        -34.90750       29.52490       14.53270
S        -33.93170       28.33800       13.80260
H          7.46660       10.90390       -7.22100
H          6.21650       12.38660       -5.56820
H          5.74090        9.35390       -8.47270
H          1.52870       10.93090       -6.28040
H          2.00770       13.92980       -3.34570
H         -0.71900       12.04190       -5.39100
H         -0.19980       12.85390       -2.59850
H         -2.82640       11.01470       -4.69170
H         -5.23410       11.39480       -3.89720
H         -6.82110       11.58350       -1.90950
H         -5.26540       15.47480       -1.34140
H         -9.83950       14.70460        0.41960
H        -11.39580       10.80750       -0.03280
H        -12.74970       12.70890        1.62310
H        -12.13760       15.36170        0.47980
H        -15.11660       13.31740        1.74000
H        -16.89670       14.71730        2.94250
H        -17.42600       16.32060        4.82330
H        -15.63990       19.37590        2.49030
H        -19.01820       20.88730        5.86550
H        -20.83190       17.82820        8.13770
H        -20.76490       21.74870        7.53150
H        -22.03780       19.60930        9.11990
H        -21.28110       23.34930        9.24330
H        -23.09490       24.75630       10.38030
H        -25.53410       25.46900       10.46480
H        -26.37550       21.69790       12.17580
H        -29.68750       25.33540       13.15050
H        -28.83990       29.06940       11.37060
H        -31.43580       27.14080       13.65670
H        -30.89090       29.73480       12.36710
H        -32.37030       31.53300       13.91340
H        -34.71770       31.60290       14.96510
H        -35.85310       29.34480       14.90490
