202
630_439_01010101.out	Energy:   -5646.2396848
C        -13.39010        9.53930       10.35520
C        -13.75090        8.94420       11.50730
C        -14.84690        8.01130       11.21240
C        -15.09980        8.15360        9.76540
C        -14.21850        9.04490        9.28030
C        -16.06130        7.49900        8.96180
N        -16.85260        6.96650        8.29960
C        -15.47630        7.21860       12.10760
C        -16.62620        6.36060       11.81800
C        -17.03760        5.77900       12.96150
C        -16.15650        6.21760       14.03280
C        -15.21030        7.03930       13.54270
C        -14.12180        7.51310       14.31230
N        -13.22110        7.86390       14.95440
C        -18.17490        4.89640       13.02100
C        -18.13850        3.66590       13.55680
C        -19.33000        2.74290       13.60720
C        -19.65430        2.38850       15.04950
O        -20.11260        3.14730       15.88800
O        -19.33520        1.08090       15.30190
C        -18.72300        0.48630       14.14660
C        -19.20200        1.34550       12.99530
C        -18.40770        1.15300       11.71090
C        -16.89280        1.14950       11.87700
C        -16.38290        0.33990       13.06850
C        -17.20240        0.43670       14.34230
O        -16.86210       -0.74940       15.08520
C        -16.37940       -1.71410       14.24510
O        -16.09060       -2.84500       14.60020
C        -16.31220       -1.16650       12.83200
C        -15.08140       -1.61850       12.09760
C        -13.82630       -1.34440       12.48350
C        -12.67320       -1.80620       11.77400
C        -11.71790       -0.98140       11.30280
C        -10.68560       -1.79570       10.66020
C        -11.12580       -3.19080       10.82580
C        -12.29740       -3.17580       11.47900
C        -10.47490       -4.38280       10.44190
N         -9.93610       -5.36340       10.13420
C         -9.57400       -1.32060       10.06150
C         -8.54950       -2.13990        9.42310
C         -7.56500       -1.33820        8.97040
C         -7.94740        0.03800        9.25450
C         -9.12650        0.06820        9.89970
C         -9.76200        1.26020       10.30410
N        -10.27980        2.25110       10.63520
C         -6.40990       -1.78730        8.23300
C         -5.80720       -2.97440        8.42360
C         -4.60400       -3.43660        7.64690
C         -4.62660       -4.95240        7.51160
O         -5.39180       -5.59790        6.81470
O         -3.67810       -5.51540        8.32380
C         -3.01440       -4.49810        9.08880
C         -3.22730       -3.23590        8.27910
C         -2.94030       -1.94760        9.03730
C         -3.49730       -1.88370       10.45230
C         -3.36160       -3.17410       11.25830
C         -3.59120       -4.46640       10.50760
O         -2.94250       -5.46730       11.31490
C         -1.99990       -4.88750       12.11950
O         -1.25830       -5.51010       12.86200
C         -1.98810       -3.38970       11.88070
C         -1.72950       -2.62250       13.14260
C         -2.55340       -1.72390       13.70570
C         -2.25070       -1.02980       14.91840
C         -1.01260       -0.63660       15.27440
C         -1.09420        0.02000       16.57120
C         -2.52070        0.02920       16.92080
C         -3.19070       -0.57400       15.92440
C         -3.15410        0.54310       18.06900
N         -3.68110        0.95660       19.01840
C         -0.03490        0.46640       17.27280
C         -0.10410        1.04160       18.61060
C          1.14850        1.29740       19.02780
C          2.07220        0.94130       17.96320
C          1.39180        0.45440       16.91030
C          2.00170        0.06790       15.69740
N          2.50340       -0.25180       14.69250
C          1.43820        1.86810       20.31130
C          2.21060        1.27690       21.23640
C          2.55570        1.96560       22.52770
C          4.05780        2.14600       22.62340
O          4.73930        2.84890       21.89430
O          4.56440        1.38550       23.64130
C          3.53070        0.58000       24.23550
C          2.24570        1.28410       23.85730
C          0.98760        0.43990       23.98520
C          1.09510       -1.01020       23.52860
C          2.40990       -1.71710       23.84670
C          3.66330       -0.86710       23.74600
O          4.62930       -1.56080       24.56190
C          4.00400       -2.42230       25.42370
O          4.59250       -3.12870       26.22540
C          2.50170       -2.30800       25.25160
C          1.80690       -3.64160       25.36830
C          0.85200       -3.91530       26.27080
C          0.18280       -5.18930       26.37990
C         -1.06870       -5.31550       26.86790
C         -1.41790       -6.73870       26.92700
C         -0.22170       -7.45050       26.45220
C          0.70110       -6.52690       26.13200
C         -0.00320       -8.84290       26.33580
N          0.18590       -9.98410       26.24150
C         -2.60210       -7.22880       27.35160
C         -2.95750       -8.64570       27.47310
C         -4.20850       -8.73610       27.96960
C         -4.72650       -7.38630       28.13390
C         -3.79420       -6.48570       27.78710
C         -4.02470       -5.09040       27.81940
N         -4.22230       -3.94720       27.85710
C         -4.89570       -9.98130       28.20400
C         -5.88510      -10.12210       29.10380
C         -6.60710      -11.42320       29.32050
C         -7.83480      -11.45730       28.42830
O         -7.82880      -11.53690       27.21020
O         -8.97310      -11.35370       29.18030
C         -8.64360      -11.18940       30.56990
C         -7.23490      -11.73350       30.68170
C         -6.51500      -11.34600       31.96640
C         -6.67130       -9.89740       32.41700
C         -8.06360       -9.29680       32.22870
C         -8.80650       -9.71700       30.97170
O        -10.18960       -9.45520       31.27250
C        -10.38360       -9.40030       32.62730
O        -11.47940       -9.25760       33.14690
C         -9.06150       -9.62800       33.33960
C         -8.88540       -8.76700       34.56450
C         -9.21320       -9.14050       35.80900
H        -12.63870       10.23970       10.25550
H        -13.33140        9.11340       12.43490
H        -14.14500        9.33190        8.29180
H        -17.05270        6.22340       10.88830
H        -16.24430        5.93950       15.02270
H        -19.06960        5.22950       12.62900
H        -17.24670        3.33360       13.95580
H        -20.04120        3.31790       13.05190
H        -18.99030       -0.53320       13.96220
H        -20.15520        1.06880       12.59560
H        -18.66500        1.94660       11.04080
H        -18.66770        0.18190       11.34460
H        -16.56860        2.16190       11.99880
H        -16.49380        0.68200       11.00120
H        -15.42170        0.79690       13.17920
H        -16.96990        1.36040       14.82970
H        -17.09410       -1.51540       12.19040
H        -15.21030       -2.17690       11.23930
H        -13.68600       -0.77380       13.33190
H        -11.71460        0.04760       11.38150
H        -12.84740       -4.01130       11.73300
H         -8.57450       -3.16760        9.33260
H         -7.39330        0.86990        8.99760
H         -6.02110       -1.15800        7.51340
H         -6.19230       -3.60480        9.14420
H         -4.69540       -2.84760        6.75830
H         -1.96660       -4.65360        9.23990
H         -2.50830       -3.08710        7.50080
H         -3.36050       -1.13640        8.48030
H         -1.87620       -1.89570        9.13720
H         -4.53720       -1.63970       10.38900
H         -2.91860       -1.14640       10.96850
H         -4.13390       -2.99710       11.97740
H         -4.64140       -4.61560       10.36720
H         -1.20100       -3.03270       11.24990
H         -0.83430       -2.80190       13.62370
H         -3.45170       -1.52390       13.23870
H         -0.15240       -0.77690       14.72180
H         -4.21480       -0.69430       15.88180
H         -0.96750        1.22170       19.14640
H          3.09780        1.04660       18.00860
H          1.02840        2.78790       20.53710
H          2.57580        0.32840       21.05730
H          1.93780        2.83520       22.44390
H          3.57870        0.49190       25.30080
H          1.95130        2.03510       24.56030
H          0.22080        0.90820       23.40410
H          0.78220        0.39310       25.03430
H          0.96160       -1.02970       22.46720
H          0.34340       -1.54060       24.07490
H          2.38100       -2.46800       23.08500
H          3.92620       -0.76160       22.71420
H          2.01800       -1.71860       26.00230
H          2.08290       -4.39000       24.71350
H          0.57920       -3.16790       26.92810
H         -1.68160       -4.53590       27.15350
H          1.64200       -6.73610       25.76330
H         -2.35140       -9.44190       27.22070
H         -5.67470       -7.15490       28.46900
H         -4.61390      -10.80720       27.65310
H         -6.16020       -9.30350       29.66880
H         -5.80880      -12.11500       29.15040
H         -9.28400      -11.71220       31.24920
H         -7.17340      -12.79050       30.83630
H         -5.47110      -11.53260       31.82430
H         -6.96790      -11.93510       32.73630
H         -5.97750       -9.30240       31.86060
H         -6.49110       -9.89670       33.47170
H         -7.79480       -8.26140       32.20270
H         -8.41200       -9.17690       30.13650
H         -8.95510      -10.61380       33.74200
H         -8.48480       -7.82470       34.43570
H         -9.61640      -10.07530       35.97780
H         -9.06230       -8.49340       36.59860
