158
630_534_01010101.out	Energy:   -7797.6224036
C        -11.64610       -4.35080        6.27750
C        -12.88320       -4.56860        5.77360
C        -13.59670       -3.30390        5.72300
C        -12.65530       -2.29600        6.25090
C        -11.49790       -2.93930        6.57610
C        -12.90630       -0.91800        6.39220
N        -13.09470        0.21330        6.51430
C        -14.87260       -3.08110        5.28190
C        -15.57630       -1.82970        5.23660
C        -16.83770       -2.03360        4.72680
C        -16.97450       -3.45900        4.42480
C        -15.81760       -4.09080        4.74970
C        -15.56690       -5.47090        4.60270
N        -15.38940       -6.60230        4.47290
C        -17.82830       -1.02710        4.53490
C        -19.06920       -1.24950        4.02430
C        -20.04120       -0.22130        3.84950
S        -19.64930        1.40260        4.31780
C        -21.20110        1.99100        3.83850
C        -21.98940        0.96060        3.33250
C        -21.33620       -0.29410        3.33790
C        -22.00740       -1.54780        2.83520
F        -21.22930       -2.63250        2.93320
F        -23.11710       -1.81330        3.52990
F        -22.33950       -1.43450        1.54620
C        -23.38280        1.27800        2.85590
F        -24.10660        1.80290        3.86020
F        -23.33790        2.21220        1.88950
F        -24.05900        0.24770        2.37740
C        -21.56240        3.36000        3.97490
C        -20.73050        4.31490        4.47420
C        -21.07070        5.68700        4.62750
C        -20.24360        6.66940        5.13430
C        -20.94020        7.91610        5.14220
C        -22.28410        7.63370        4.58890
C        -22.34880        6.31040        4.28720
C        -23.31780        8.57320        4.39630
N        -24.17810        9.32240        4.23120
C        -20.47520        9.13770        5.57910
C        -21.17920       10.38020        5.61770
C        -20.35610       11.35600        6.14220
C        -19.06930       10.73630        6.45040
C        -19.12710        9.41860        6.12150
C        -18.07670        8.48990        6.26690
N        -17.20130        7.75040        6.39390
C        -20.71770       12.71770        6.35070
C        -19.87990       13.66400        6.85290
C        -20.19070       15.04370        7.05390
S        -18.86280       16.15260        7.12040
C        -19.91290       17.52410        7.24660
C        -21.24650       17.12330        7.23390
C        -21.40330       15.71740        7.16930
C        -22.72020       15.01180        7.36880
F        -22.54250       13.87050        8.05390
F        -23.58020       15.73880        8.07350
F        -23.30600       14.68660        6.20910
C        -22.40290       18.09170        7.21150
F        -22.04260       19.26590        6.67340
F        -23.40960       17.63280        6.46880
F        -22.86960       18.34960        8.43620
C        -19.38020       18.83650        7.38520
C        -18.04760       19.11560        7.36190
C        -17.49650       20.41980        7.51310
C        -18.15000       21.61940        7.71860
C        -17.18890       22.67140        7.79620
C        -15.86500       22.03120        7.62510
C        -16.06380       20.69630        7.46050
C        -14.61680       22.68490        7.62940
N        -13.58490       23.19990        7.62780
C        -17.42720       24.01760        7.97800
C        -16.46700       25.07290        8.01810
C        -17.12150       26.27710        8.18330
C        -18.55390       25.99910        8.26650
C        -18.75090       24.66020        8.14670
C        -19.99600       24.00030        8.18180
N        -21.02370       23.47910        8.21530
C        -16.57990       27.59350        8.24920
C        -15.25380       27.87360        8.12990
C        -14.66430       29.17330        8.10920
S        -13.11450       29.32160        7.35240
C        -13.10520       31.04430        7.52880
C        -14.26820       31.47860        8.16060
C        -15.12930       30.41660        8.52930
C        -16.33810       30.58390        9.41340
F        -16.47930       29.52210       10.22320
F        -16.24290       31.64620       10.20530
F        -17.47380       30.69330        8.71010
C        -14.61030       32.93260        8.37180
F        -14.01070       33.71370        7.46290
F        -15.91960       33.14840        8.24590
F        -14.22860       33.36950        9.57550
C        -11.99370       31.80930        7.07490
C        -10.88570       31.25690        6.50860
C         -9.76570       31.99810        6.03390
C         -9.59310       33.36640        5.97050
C         -8.31600       33.65350        5.39790
C         -7.69040       32.34240        5.11400
C         -8.56400       31.37140        5.49100
C         -6.41880       32.13100        4.54480
N         -5.38300       31.93340        4.07800
C         -7.77010       34.89110        5.13580
C         -6.49420       35.17530        4.55810
C         -6.34100       36.54020        4.44430
C         -7.55200       37.17180        4.96620
C         -8.40890       36.20460        5.38480
C         -9.68400       36.41460        5.94730
N        -10.72400       36.60840        6.40560
C         -5.23920       37.28350        3.92200
C         -4.11010       36.71470        3.42800
C         -2.99780       37.41060        2.85240
S         -1.99060       36.52600        1.75740
C         -1.02360       37.90910        1.40580
C         -1.47270       39.01780        2.09790
C         -2.57190       38.72610        2.95620
C         -3.09750       39.68920        3.98710
F         -3.46440       39.03570        5.10170
F         -2.17810       40.57440        4.36110
F         -4.17290       40.36560        3.56010
C         -0.96030       40.41300        1.85080
F         -0.51960       40.54340        0.59080
F         -1.91760       41.32570        2.00690
F          0.05790       40.73830        2.65710
C          0.11210       37.73370        0.52130
C          1.24380       38.43380        0.57490
H        -10.87330       -5.08630        6.44240
H        -13.29570       -5.51190        5.45610
H        -10.60810       -2.48850        6.98870
H        -15.17010       -0.88370        5.55560
H        -17.85730       -3.92240        4.01160
H        -17.54490       -0.01890        4.82640
H        -19.34680       -2.25340        3.73240
H        -22.56400        3.62480        3.65570
H        -19.72890        4.03000        4.78670
H        -19.23250        6.52280        5.47720
H        -23.19730        5.79450        3.86510
H        -22.19750       10.52480        5.29560
H        -18.21750       11.24820        6.87130
H        -21.72960       12.98370        6.06660
H        -18.84740       13.39980        7.06250
H        -20.09070       19.64120        7.53100
H        -17.34000       18.30380        7.21340
H        -19.21510       21.75770        7.80400
H        -15.30370       19.94440        7.31130
H        -15.40290       24.93300        7.92360
H        -19.31240       26.75470        8.40260
H        -17.29660       28.39730        8.37130
H        -14.55920       27.05970        7.94190
H        -12.04460       32.88270        7.20950
H        -10.83070       30.17660        6.40090
H        -10.30180       34.11340        6.28790
H         -8.41530       30.30480        5.41520
H         -5.77880       34.42560        4.26350
H         -7.71290       38.23840        5.00350
H         -5.35110       38.36170        3.92000
H         -4.03940       35.63180        3.38050
H          0.01810       36.90790       -0.17810
H          1.40730       39.23230        1.28390
H          2.06110       38.22130       -0.09910
