142
630_898_01010101.out	Energy:   -5839.7512899
C        -45.16110       21.52980        0.79230
C        -44.40500       20.65420        1.47930
C        -43.22250       21.36770        1.97330
C        -43.37710       22.75840        1.50080
C        -44.52630       22.82720        0.80690
C        -42.52270       23.86920        1.69570
N        -41.81870       24.77890        1.85000
C        -42.22130       20.82640        2.70010
C        -41.04690       21.54950        3.17460
C        -40.23940       20.69710        3.83630
C        -40.89020       19.39670        3.86140
C        -42.05040       19.44990        3.18350
C        -42.90100       18.33560        3.01050
N        -43.58630       17.40900        2.87320
C        -39.00850       21.07810        4.48060
C        -38.21530       22.05820        4.02220
C        -37.03210       22.41010        4.71330
S        -35.56280       21.65240        4.28000
C        -34.65240       22.57620        5.40970
C        -35.47580       23.43860        6.11610
C        -36.83950       23.33830        5.71750
C        -37.89810       24.11240        6.29450
N        -38.73280       24.74450        6.79260
C        -35.01690       24.32700        7.14600
N        -34.62530       25.05320        7.96120
C        -33.25730       22.32580        5.46720
C        -32.37820       23.28330        5.78860
C        -30.97730       23.01740        5.86210
C        -30.24630       22.59350        4.81550
C        -28.87540       22.41480        5.27170
C        -28.87430       22.75960        6.70190
C        -30.12450       23.12130        7.02780
C        -27.81270       22.72430        7.63390
N        -26.94630       22.69370        8.40570
C        -27.85830       22.02220        4.48510
C        -26.48500       21.86360        4.92970
C        -25.74370       21.49330        3.87230
C        -26.60840       21.37580        2.71260
C        -27.86530       21.68650        3.05650
C        -28.93750       21.66270        2.13810
N        -29.80970       21.63600        1.37240
C        -24.33660       21.27310        3.97360
C        -23.56850       20.90040        2.94130
C        -22.17970       20.66850        3.10720
S        -21.58390       20.03710        4.58750
C        -19.97660       20.07670        4.04460
C        -19.87780       20.51470        2.74420
C        -21.14960       20.84110        2.19820
C        -21.35300       21.32540        0.86930
N        -21.53650       21.71050       -0.21310
C        -18.63110       20.63100        2.05040
N        -17.62600       20.72330        1.48320
C        -18.98470       19.72240        4.97260
C        -18.64750       18.43740        5.15190
C        -17.69080       18.02340        6.13910
C        -17.05610       18.87450        6.96830
C        -16.14320       18.12640        7.80450
C        -16.31050       16.72020        7.41860
C        -17.22980       16.67750        6.43850
C        -15.66980       15.57540        7.94130
N        -15.13980       14.63290        8.36310
C        -15.32980       18.69760        8.70900
C        -14.36870       17.97140        9.51410
C        -13.71940       18.86380       10.27970
C        -14.23680       20.18840       10.02460
C        -15.19090       20.11540        9.08550
C        -15.88170       21.25220        8.60960
N        -16.44420       22.18890        8.21800
C        -12.69180       18.50660       11.19500
C        -11.59490       17.85660       10.79240
C        -10.57800       17.51880       11.71150
S         -8.98410       17.56350       11.13490
C         -8.30000       17.19270       12.66900
C         -9.30810       16.97560       13.59560
C        -10.61150       17.14000       13.04140
C        -11.82640       16.95100       13.77910
N        -12.82430       16.83650       14.35730
C         -9.07690       16.62540       14.96700
N         -8.90970       16.34250       16.07880
C         -6.88550       17.13940       12.83800
C         -6.03750       17.37910       11.82760
C         -4.61690       17.36200       11.95960
C         -3.81510       18.08690       11.15600
C         -2.43220       17.80290       11.52030
C         -2.50320       16.80860       12.60300
C         -3.79800       16.55390       12.83800
C         -1.46210       16.18050       13.32090
N         -0.61760       15.65990       13.92190
C         -1.35370       18.36650       10.94340
C          0.02590       18.07270       11.30500
C          0.84500       18.80060       10.52130
C          0.01980       19.62760        9.65380
C         -1.28040       19.36700        9.87180
C         -2.32640       19.97670        9.14220
N         -3.18000       20.47540        8.53300
C          2.28260       18.79600       10.61340
C          2.99440       17.71590       10.97190
C          4.40850       17.77390       11.04780
S          5.14280       18.19900       12.53580
C          6.74220       18.04350       11.90790
C          6.69550       17.62930       10.58420
C          5.36180       17.48180       10.09150
C          5.03970       17.06270        8.75690
N          4.80420       16.72390        7.67280
C          7.85600       17.34810        9.79160
N          8.78860       17.12780        9.13520
C          7.82010       18.31750       12.80050
C          8.99770       18.80530       12.39170
H        -46.05550       21.30880        0.32730
H        -44.61940       19.65630        1.63180
H        -44.89810       23.67670        0.35410
H        -40.86330       22.55420        3.02700
H        -40.51670       18.55680        4.33050
H        -38.72360       20.57360        5.33460
H        -38.47070       22.56020        3.15750
H        -32.90960       21.37760        5.25500
H        -32.72130       24.23600        5.98790
H        -30.59540       22.42490        3.85900
H        -30.43110       23.42640        7.96480
H        -26.13880       22.00980        5.89080
H        -26.30190       21.09580        1.76780
H        -23.88670       21.40850        4.89250
H        -23.99490       20.78000        2.00920
H        -18.51120       20.45710        5.52120
H        -19.09190       17.71940        4.55860
H        -17.19840       19.89610        7.00160
H        -17.55850       15.81900        5.96950
H        -14.21130       16.95160        9.50170
H        -13.92200       21.05340       10.49120
H        -12.79480       18.75430       12.19150
H        -11.49040       17.59900        9.79860
H         -6.50190       16.90900       13.76790
H         -6.43600       17.58850       10.89900
H         -4.12560       18.73110       10.41200
H         -4.15600       15.88470       13.53730
H          0.32680       17.41490       12.04100
H          0.38000       20.31320        8.97170
H          2.79070       19.66670       10.39270
H          2.50690       16.83410       11.19470
H          7.68630       18.13130       13.80670
H          9.15610       18.99990       11.39060
H          9.74720       18.98690       13.07750
