186
630_686_01010101.out	Energy:   -5039.5550949
C          5.07870        2.87300       -6.64510
C          3.76260        2.75910       -6.39190
C          3.19690        4.11180       -6.30360
C          4.33420        5.02380       -6.52450
C          5.42990        4.27120       -6.72440
C          4.35330        6.43700       -6.52340
N          4.38000        7.59790       -6.52340
C          1.89920        4.41230       -6.08020
C          1.32480        5.75950       -6.03390
C          0.00210        5.65870       -5.79630
C         -0.33330        4.24800       -5.69590
C          0.77030        3.49780       -5.85000
C          0.75770        2.09470       -5.76870
N          0.74020        0.92900       -5.70350
C         -0.88470        6.78850       -5.70860
C         -2.01730        6.76030       -4.99170
C         -2.90470        7.88200       -4.88520
C         -4.20610        7.83790       -5.24270
C         -4.79950        9.14880       -4.97870
C         -3.70050        9.98460       -4.47940
C         -2.59400        9.22470       -4.41730
O         -3.85830       11.32250       -4.28610
C         -2.67680       12.09840       -4.44830
C         -6.08900        9.48840       -5.16930
C         -6.68730       10.75620       -4.76430
C         -7.98790       10.76180       -5.12020
C         -8.27680        9.49400       -5.78030
C         -7.17190        8.72540       -5.79390
O         -6.96670        7.48220       -6.30800
C         -8.09290        6.88640       -6.94240
C         -8.88770       11.86240       -4.89240
C         -8.85200       12.67750       -3.81490
C         -9.87830       13.71280       -3.96950
C        -10.54640       13.41010       -5.24360
C         -9.95990       12.31930       -5.76350
C        -11.59500       14.10390       -5.88740
N        -12.45300       14.66830       -6.42890
C        -10.10310       14.72710       -3.10880
C        -11.09640       15.78800       -3.27890
C        -11.00100       16.64460       -2.24170
C         -9.95650       16.15930       -1.35520
C         -9.42240       15.03320       -1.84780
C         -8.38560       14.33310       -1.19490
N         -7.53190       13.77790       -0.64070
C        -11.81950       17.81880       -2.09200
C        -11.71360       18.66970       -1.05920
C        -12.51880       19.85030       -0.92960
C        -12.11880       20.95710       -0.26670
C        -13.16750       21.96970       -0.39610
C        -14.29280       21.28600       -1.05500
C        -13.88580       20.04930       -1.38160
O        -15.55160       21.81320       -1.09540
C        -16.60030       20.83890       -1.13180
C        -13.05740       23.25310       -0.00230
C        -13.99780       24.30550       -0.34460
C        -13.66190       25.43410        0.31570
C        -12.42390       25.17030        1.04300
C        -12.04160       23.89560        0.83490
O        -10.97410       23.20320        1.31750
C        -10.11390       23.93790        2.18030
C        -14.43710       26.64900        0.27480
C        -15.58410       26.78530       -0.42670
C        -16.12660       28.12080       -0.21300
C        -15.17640       28.78170        0.69160
C        -14.19910       27.90350        0.97380
C        -15.21000       30.09540        1.20100
N        -15.21990       31.17960        1.62080
C        -17.27550       28.58270       -0.74840
C        -17.84720       29.90570       -0.51350
C        -19.01830       29.98070       -1.17180
C        -19.24380       28.73370       -1.87370
C        -18.22120       27.89660       -1.64340
C        -18.14090       26.60980       -2.22050
N        -18.08530       25.55750       -2.70670
C        -19.86840       31.12760       -1.14250
C        -20.22260       31.80250       -2.24460
C        -21.06390       32.96560       -2.19520
C        -22.04080       33.15350       -1.28190
C        -22.68610       34.42980       -1.54990
C        -22.06500       34.93420       -2.78260
C        -21.09530       34.07370       -3.13830
O        -22.51960       36.05730       -3.39990
C        -21.83760       36.44960       -4.58450
C        -23.61550       35.00540       -0.76520
C        -24.17540       36.32960       -0.99100
C        -25.03110       36.62130        0.00800
C        -25.05740       35.48290        0.91910
C        -24.24050       34.51460        0.46890
O        -23.98660       33.27030        0.94920
C        -24.66030       32.84410        2.12760
C        -25.80230       37.83250        0.10210
C        -25.56920       38.95490       -0.61230
C        -26.60350       39.93880       -0.30210
C        -27.46040       39.30100        0.70510
C        -26.97410       38.07160        0.93380
C        -28.60340       39.81290        1.35780
N        -29.54870       40.21470        1.89850
C        -26.72000       41.14880       -0.88520
C        -27.80060       42.10090       -0.64480
C        -27.60930       43.16680       -1.44390
C        -26.39890       42.96180       -2.21410
C        -25.85330       41.77810       -1.89330
C        -24.64360       41.31300       -2.45480
N        -23.64800       40.94530       -2.92570
C        -28.49670       44.28960       -1.48010
C        -28.10070       45.54150       -1.20330
C        -29.01940       46.65000       -1.18220
C        -28.87070       47.76130       -0.42620
C        -30.00740       48.65310       -0.68720
C        -30.84110       47.95100       -1.66950
C        -30.23750       46.79020       -1.96790
O        -32.04150       48.44170       -2.07970
C        -32.73760       47.64740       -3.03250
C        -30.20250       49.87450       -0.15250
C        -31.24610       50.81450       -0.56150
C        -31.05700       51.96590        0.10270
C        -29.94380       51.81330        1.01220
C        -29.44800       50.56660        0.89740
O        -28.54900       49.91470        1.69060
C        -28.59840       50.33800        3.05350
H          5.73440        2.08490       -6.76400
H          3.24120        1.87560       -6.27930
H          6.37750        4.63700       -6.90680
H          1.84700        6.64030       -6.16210
H         -1.28180        3.87660       -5.53010
H         -0.63980        7.65280       -6.21650
H         -2.26200        5.89050       -4.49310
H         -4.69790        7.01970       -5.63490
H         -1.66890        9.54320       -4.08920
H         -2.90150       13.13040       -4.27700
H         -2.30300       11.97520       -5.44330
H         -1.93730       11.77310       -3.74670
H         -6.19450       11.52470       -4.28300
H         -9.19100        9.22630       -6.17730
H         -7.82470        5.91750       -7.30880
H         -8.40920        7.50150       -7.75880
H         -8.89150        6.79230       -6.23650
H         -8.20750       12.58610       -3.01410
H        -10.23060       11.87010       -6.65230
H        -11.76130       15.86770       -4.06410
H         -9.66830       16.61520       -0.47540
H        -12.52580       18.01730       -2.81780
H        -11.01990       18.46490       -0.32310
H        -11.22830       21.06920        0.24260
H        -14.45630       19.34700       -1.87790
H        -17.54760       21.33550       -1.16200
H        -16.54720       20.22490       -0.25710
H        -16.48980       20.22830       -2.00350
H        -14.79660       24.20630       -0.99040
H        -11.91910       25.85530        1.62690
H         -9.31100       23.30880        2.50350
H        -10.66680       24.27630        3.03160
H         -9.71690       24.78110        1.65460
H        -16.00950       26.05700       -1.02130
H        -13.39690       28.09110        1.59540
H        -17.42570       30.65400        0.05870
H        -20.06540       28.52170       -2.46110
H        -20.22650       31.45180       -0.23040
H        -19.87900       31.47500       -3.16090
H        -22.28830       32.50120       -0.52140
H        -20.47090       34.18180       -3.95270
H        -22.28410       37.34020       -4.97480
H        -21.90700       35.66770       -5.31150
H        -20.80850       36.63610       -4.35840
H        -23.95280       36.94600       -1.78820
H        -25.62030       35.42850        1.78240
H        -24.35370       31.84890        2.37360
H        -25.71700       32.86060        1.96010
H        -24.41690       33.50220        2.93540
H        -24.78700       39.09480       -1.27080
H        -27.37260       37.39360        1.60210
H        -28.57750       41.97760        0.02310
H        -26.01460       43.62550       -2.90470
H        -29.48500       44.12910       -1.73010
H        -27.10430       45.71570       -0.99870
H        -28.09140       47.95020        0.22330
H        -30.58470       46.10000       -2.65210
H        -33.66270       48.12210       -3.28480
H        -32.93410       46.68150       -2.61610
H        -32.13940       47.54110       -3.91330
H        -31.99790       50.62520       -1.24280
H        -31.61750       52.82410       -0.01710
H        -29.58610       52.54330        1.64790
H        -27.87420       49.79350        3.62260
H        -29.57520       50.15310        3.44920
H        -28.38290       51.38460        3.11000
