138
630_1142_01010101.out	Energy:   -4179.3707590
C          5.86390       22.68670        9.26420
C          4.92770       22.73110       10.22930
C          3.64420       23.05910        9.59980
C          3.94060       23.20130        8.15490
C          5.25430       22.97530        7.98830
C          3.06050       23.50950        7.08830
N          2.34710       23.76280        6.21020
C          2.46350       23.19470       10.24200
C          1.19700       23.52410        9.59980
C          0.22210       23.57650       10.52900
C          0.83090       23.28260       11.81910
C          2.14710       23.05550       11.66890
C          3.01270       22.74100       12.74190
N          3.71330       22.48520       13.62930
C         -1.16680       23.86680       10.26250
C         -1.67140       24.09820        9.04060
C         -3.09070       24.34210        8.82530
C         -3.58180       25.65790        8.81800
C         -4.94040       25.92290        8.59240
C         -5.78890       24.83290        8.37980
C         -5.26090       23.55840        8.39720
C         -3.93070       23.24350        8.61120
O         -6.27090       22.68680        8.17010
C         -7.40010       23.47350        8.02120
N         -7.13530       24.76900        8.14170
C         -8.67330       22.90660        7.77410
C         -8.84240       21.57450        7.67310
C        -10.25750       21.31090        7.42930
C        -10.90770       22.63140        7.38820
C         -9.95640       23.55810        7.59630
C        -12.26820       22.94620        7.17480
N        -13.38460       23.20800        6.99940
C        -10.79690       20.08330        7.29330
C        -12.21040       19.80110        7.07160
C        -12.37520       18.46540        7.01760
C        -11.07720       17.83680        7.18490
C        -10.13360       18.77480        7.34670
C         -8.76610       18.46120        7.51820
N         -7.65080       18.17960        7.65690
C        -13.65440       17.84800        6.81620
C        -13.85150       16.52190        6.80260
C        -15.17070       15.92230        6.60490
C        -15.25520       14.65830        5.99180
C        -16.48980       14.02530        5.78720
C        -17.63740       14.69100        6.22260
C        -17.51310       15.92520        6.82210
C        -16.32250       16.58140        7.05720
O        -18.75120       16.37510        7.13110
C        -19.59930       15.36820        6.72060
N        -18.95540       14.34210        6.17640
C        -20.99450       15.48250        6.88470
C        -21.78460       14.40270        7.05240
C        -23.16160       14.87780        7.16990
C        -23.09220       16.26780        7.01330
C        -21.82430       16.66650        6.86530
C        -24.29600       17.18930        6.90330
N        -25.29470       17.95380        6.81200
C        -24.30290       14.27800        7.50020
C        -25.68760       14.72450        7.55430
C        -26.41790       13.77040        8.16570
C        -25.53430       12.67380        8.48900
C        -24.31130       13.00390        8.07000
C        -23.12310       12.06070        8.16420
N        -22.13730       11.27830        8.24240
C        -27.82450       13.88680        8.39050
C        -28.55420       12.97070        9.04060
C        -29.98170       13.15530        9.29170
C        -30.51790       14.44360        9.49110
C        -31.87810       14.64890        9.73850
C        -32.69280       13.52060        9.80470
C        -32.13050       12.27330        9.62940
C        -30.79340       12.01870        9.37690
O        -33.11630       11.35530        9.74790
C        -34.26350       12.08890        9.99240
N        -34.03470       13.39550       10.03030
C        -35.51700       11.46350       10.17690
C        -35.64740       10.12340       10.13030
C        -37.05200        9.79490       10.35930
C        -37.73680       11.08670       10.53640
C        -36.81430       12.05720       10.43020
C        -39.10400       11.34250       10.78390
N        -40.22490       11.55840       10.98610
C        -37.55440        8.54490       10.39270
C        -38.95850        8.20490       10.60120
C        -39.08550        6.86410       10.57250
C        -37.77140        6.28850       10.34080
C        -36.85530        7.26340       10.23400
C        -35.48420        7.00320       10.02100
N        -34.36000        6.77030        9.84840
C        -40.35070        6.19980       10.72800
C        -40.50820        4.86760       10.73500
C        -41.81540        4.21420       10.86690
C        -41.99970        2.95190       10.27170
C        -43.22290        2.26670       10.36430
C        -44.26140        2.86950       11.08310
C        -44.04040        4.10450       11.66780
C        -42.85210        4.81410       11.60030
O        -45.18330        4.47980       12.30820
C        -46.03270        3.44190       12.07050
N        -45.54230        2.45690       11.34840
H          6.86360       22.47850        9.41320
H          5.08500       22.56380       11.23540
H          5.75220       23.00370        7.08480
H          1.06690       23.69140        8.58970
H          0.32500       23.25290       12.71810
H         -1.81470       23.89860       11.06510
H         -1.03420       24.10340        8.22890
H         -2.93210       26.44290        8.98150
H         -5.30120       26.88970        8.58360
H         -3.58400       22.27150        8.61270
H         -8.09960       20.86270        7.75400
H        -10.11500       24.57750        7.62510
H        -12.95800       20.50570        6.97270
H        -10.90640       16.81900        7.17990
H        -14.47190       18.46140        6.67310
H        -13.03960       15.89920        6.93700
H        -14.38950       14.18690        5.68610
H        -16.54800       13.10120        5.33140
H        -16.28240       17.49580        7.53380
H        -21.47340       13.41950        7.09080
H        -21.49820       17.63970        6.75730
H        -26.04850       15.61890        7.18720
H        -25.80090       11.79450        8.95880
H        -28.30610       14.72570        8.03090
H        -28.09450       12.10900        9.37400
H        -29.88720       15.25960        9.45330
H        -32.26330       15.59770        9.86700
H        -30.42310       11.06250        9.26040
H        -34.88680        9.44640        9.96190
H        -37.00060       13.06860       10.51580
H        -39.72610        8.87930       10.74640
H        -37.57190        5.27850       10.26910
H        -41.19260        6.78570       10.84160
H        -39.66930        4.27360       10.64320
H        -41.21790        2.51950        9.75520
H        -43.35170        1.34640        9.91550
H        -42.73580        5.72980       12.06180
H        -46.99870        3.42870       12.43340
