162
630_349_01010101.out	Energy:   -6301.4660906
C         -5.10330      -21.25240       -5.62110
C         -5.27370      -20.43740       -4.55330
C         -4.01780      -20.34630       -3.82990
C         -3.06760      -21.19360       -4.57630
C         -3.73390      -21.72610       -5.64110
C         -1.71630      -21.41470       -4.25010
N         -0.60780      -21.61000       -3.99760
C         -3.75880      -19.63160       -2.69110
C         -2.51950      -19.54630       -1.97380
C         -2.68170      -18.73320       -0.87410
C         -4.06840      -18.26410       -0.86620
C         -4.71680      -18.78700       -1.93800
C         -6.06830      -18.55860       -2.26880
N         -7.17570      -18.35160       -2.51400
C         -1.67710      -18.41060        0.08170
C         -1.87620      -17.61870        1.17160
C         -0.88300      -17.29050        2.13260
C          0.53500      -17.69180        2.17440
N          1.18070      -17.21210        3.19740
C          0.26720      -16.46400        3.91470
C         -1.03600      -16.50630        3.25540
C         -2.00540      -15.72010        3.99710
S         -3.58910      -15.46470        3.65400
C         -1.23010      -15.21270        5.11320
C          0.14940      -15.68410        5.03420
N          0.87760      -15.18660        6.09870
C          0.05360      -14.46110        6.79650
C         -1.31150      -14.42090        6.24040
C         -2.45280      -13.73110        6.72030
C         -2.48070      -12.92680        7.82290
C         -3.62870      -12.21920        8.26540
C         -3.68280      -11.34350        9.33660
C         -4.99290      -10.79500        9.43220
C         -5.77700      -11.41880        8.34230
C         -4.95650      -12.25850        7.65730
C         -7.13900      -11.19220        8.05890
N         -8.25140      -11.02450        7.80610
C         -5.44950       -9.83540       10.31520
C         -6.73220       -9.22000       10.34260
C         -6.75040       -8.23850       11.31880
C         -5.44430       -8.23970       11.97350
C         -4.66280       -9.18590       11.38850
C         -3.33480       -9.49370       11.74640
N         -2.25030       -9.73180       12.05750
C         -7.82630       -7.34910       11.57370
C         -7.77170       -6.29420       12.43810
C         -8.79270       -5.32210       12.58860
C        -10.11950       -5.26760       11.94820
N        -10.77020       -4.16870       12.19570
C         -9.94820       -3.40610       13.00320
C         -8.72060       -4.13990       13.29740
C         -7.81300       -3.32120       14.07950
S         -6.31890       -3.70290       14.63870
C         -8.53130       -2.06570       14.20350
C         -9.82910       -2.15080       13.53840
N        -10.45680       -0.92080       13.57390
C         -9.62720       -0.10570       14.15810
C         -8.37160       -0.74940       14.58110
C         -7.23370       -0.16540       15.19850
C         -6.97470        1.17130       15.25080
C         -5.79020        1.72560       15.81040
C         -5.30400        3.00170       15.59580
C         -4.06210        3.15320       16.27880
C         -3.83530        1.88000       17.00030
C         -4.85050        1.03190       16.68730
C         -2.74590        1.58090       17.84270
N         -1.86740        1.31350       18.54010
C         -3.17740        4.21010       16.20530
C         -1.92780        4.34810       16.87600
C         -1.27670        5.47250       16.40380
C         -2.14200        6.10470       15.41150
C         -3.28870        5.38160       15.30650
C         -4.37810        5.68200       14.46440
N         -5.26100        5.94930       13.77270
C          0.01650        5.91110       16.79870
C          0.76360        6.82440       16.11610
C          2.08010        7.21350       16.47940
C          2.78840        6.96550       17.74780
N          4.00850        7.41730       17.75840
C          4.22170        7.97850       16.51460
C          3.00600        7.88620       15.70990
C          3.24550        8.39600       14.37120
S          2.19900        8.48640       13.11120
C          4.64720        8.77180       14.40870
C          5.20690        8.52090       15.73370
N          6.55450        8.82500       15.74260
C          6.85010        9.19900       14.53250
C          5.69900        9.17540       13.61110
C          5.68090        9.42750       12.21570
C          6.79210        9.67600       11.46320
C          6.80010        9.82870       10.05230
C          7.93180        9.95840        9.26590
C          7.55200       10.00860        7.89500
C          6.07340        9.93280        7.87940
C          5.64070        9.82270        9.16380
C          5.25250        9.97060        6.73430
N          4.56240       10.00780        5.81140
C          8.38160       10.05970        6.79180
C          8.01350       10.02970        5.41670
C          9.15600       10.03280        4.63530
C         10.30760       10.08650        5.53330
C          9.86170       10.10510        6.81690
C         10.67630       10.16080        7.96580
N         11.36560       10.20630        8.88900
C          9.19970        9.96710        3.21770
C         10.35100        9.91390        2.48740
C         10.41930        9.81280        1.07450
C          9.32200        9.76470        0.09200
N          9.72980        9.65240       -1.13800
C         11.11120        9.61430       -1.08490
C         11.55730        9.71850        0.29980
C         13.00350        9.67370        0.37860
S         13.89690        9.76290        1.75260
C         13.41690        9.53650       -1.01330
C         12.21880        9.50340       -1.87460
N         12.58120        9.36650       -3.19510
C         13.88150        9.31270       -3.20000
C         14.48890        9.41220       -1.86270
C         15.91390        9.37160       -1.65390
C         16.52280        9.46280       -0.46810
H         -5.84660      -21.52410       -6.35540
H         -6.17900      -19.92910       -4.26570
H         -3.32420      -22.39220       -6.38520
H         -1.60870      -20.04750       -2.25810
H         -4.49530      -17.60690       -0.12420
H         -0.69600      -18.84300       -0.09510
H         -2.85650      -17.18590        1.35940
H          1.02790      -18.32050        1.44570
H          0.37720      -13.95210        7.69400
H         -3.35430      -13.86950        6.12720
H         -1.57520      -12.78730        8.40710
H         -2.85800      -11.09610        9.98470
H         -5.23220      -12.86110        6.80570
H         -7.54920       -9.45780        9.68130
H         -5.15850       -7.59400       12.78940
H         -8.72690       -7.51080       10.98730
H         -6.87230       -6.11530       13.02330
H        -10.54720       -6.04500       11.33030
H         -9.87930        0.93360       14.31830
H         -6.50130       -0.87340       15.57990
H         -7.66490        1.87070       14.78710
H         -5.77040        3.75590       14.98330
H         -4.96870        0.02030       17.04390
H         -1.54210        3.66540       17.61520
H         -1.90800        7.01110       14.87470
H          0.43850        5.42550       17.67450
H          0.38630        7.25550       15.19170
H          2.36320        6.47700       18.61380
H          7.85590        9.49540       14.26820
H          4.70370        9.36190       11.74270
H          7.76260        9.72560       11.94980
H          8.94540        9.98780        9.63070
H          4.61340        9.74740        9.48520
H          7.00200        9.99130        5.04650
H         11.33960       10.10950        5.21920
H          8.24010        9.94180        2.70830
H         11.31540        9.93380        2.99070
H          8.26840        9.81610        0.33020
H         14.44110        9.20430       -4.11970
H         16.50790        9.25710       -2.55750
H         15.97130        9.57680        0.45790
H         17.60010        9.42440       -0.38470
