186
630_79_01010101.out	Energy:   -7073.9257206
C          6.17400       42.28570       -1.94750
C          6.61620       41.35540       -2.81240
C          5.44750       40.73290       -3.44680
C          4.27670       41.40150       -2.85080
C          4.73070       42.31300       -1.97160
C          2.90360       41.17830       -3.09750
N          1.77190       41.00200       -3.29280
C          5.48560       39.75230       -4.37420
C          4.32170       39.13010       -5.00940
C          4.75490       38.16750       -5.84540
C          6.20890       38.15970       -5.81910
C          6.65540       39.08290       -4.95760
C          8.03280       39.31270       -4.72250
N          9.16460       39.48610       -4.54350
C          3.88670       37.35980       -6.65450
C          4.21090       36.10920       -7.00930
C          3.29490       35.32920       -7.74260
S          2.14860       34.44020       -6.87860
C          1.42930       33.79530       -8.29630
C          2.12420       34.20300       -9.42800
C          3.18190       35.12840       -9.10190
C          4.05630       35.76010      -10.14290
C          3.47730       35.64690      -11.55820
C          2.42850       36.72050      -11.81500
F          1.37400       36.65750      -10.98090
F          2.97060       37.95390      -11.69270
F          1.95260       36.61850      -13.07780
C          2.94830       34.22260      -11.81160
C          1.82060       33.81540      -10.85320
C          0.27730       32.96610       -8.20950
C         -0.29560       32.64970       -7.03660
C         -1.46000       31.83450       -6.90140
C         -1.79460       30.86190       -7.76750
C         -3.00090       30.21840       -7.28220
C         -3.31860       30.86230       -6.00060
C         -2.39140       31.80880       -5.78810
C         -4.36410       30.58490       -5.09340
N         -5.22280       30.36320       -4.34010
C         -3.64450       29.23990       -7.93930
C         -4.86480       28.60240       -7.47620
C         -5.23140       27.68570       -8.38730
C         -4.26120       27.69710       -9.47060
C         -3.31300       28.61120       -9.22340
C         -2.23340       28.85430      -10.10410
N         -1.35500       29.04740      -10.83720
C         -6.40780       26.88430       -8.24230
C         -6.77220       25.96750       -9.14520
C         -7.95640       25.23590       -8.93650
S         -7.87300       23.74920       -8.11600
C         -9.56010       23.49950       -8.24780
C        -10.18470       24.54860       -8.91130
C         -9.24600       25.56070       -9.30300
C         -9.67350       26.81450      -10.01290
C        -11.14870       27.14720       -9.74890
C        -11.36670       27.74060       -8.35720
F        -10.23600       27.80790       -7.62490
F        -11.83290       29.00850       -8.47650
F        -12.28280       27.05950       -7.63640
C        -12.01540       25.91150      -10.02190
C        -11.66300       24.71170       -9.14470
C        -10.08160       22.32150       -7.66160
C        -11.14380       21.71370       -8.19420
C        -11.77330       20.57760       -7.61860
C        -13.09340       20.35660       -7.75180
C        -13.40330       19.11340       -7.06540
C        -12.12180       18.59060       -6.56610
C        -11.17120       19.47250       -6.90790
C        -11.84740       17.39140       -5.89070
N        -11.60780       16.40500       -5.33420
C        -14.64100       18.61180       -6.92520
C        -14.95990       17.40520       -6.18230
C        -16.29310       17.24250       -6.20780
C        -16.88100       18.31170       -6.99050
C        -15.92180       19.13380       -7.42250
C        -16.18330       20.26940       -8.21450
N        -16.42470       21.20250       -8.86760
C        -16.93760       16.15550       -5.54330
C        -18.26270       15.96310       -5.55290
C        -18.85080       14.84770       -4.90820
S        -17.98450       13.37460       -4.76030
C        -19.25130       12.62360       -3.93260
C        -20.35790       13.43260       -3.81590
C        -20.12550       14.73560       -4.37420
C        -21.18030       15.81010       -4.34470
C        -22.30900       15.51020       -3.34290
C        -21.90450       15.90680       -1.92920
F        -20.77440       15.31240       -1.50410
F        -21.71550       17.24450       -1.85240
F        -22.88430       15.59200       -1.05090
C        -22.75650       14.04040       -3.45010
C        -21.63780       13.04720       -3.14220
C        -19.05340       11.31720       -3.46080
C        -19.37010       10.27990       -4.24570
C        -19.19740        8.92710       -3.81130
C        -18.21710        8.52920       -2.97580
C        -18.32930        7.09150       -2.78150
C        -19.47000        6.67030       -3.60700
C        -19.95760        7.76130       -4.21800
C        -20.03170        5.38410       -3.75600
N        -20.51130        4.33600       -3.88380
C        -17.50220        6.36220       -2.00830
C        -17.55750        4.91250       -1.86370
C        -16.53720        4.52980       -1.07580
C        -15.80450        5.71030       -0.65280
C        -16.36740        6.80810       -1.18400
C        -15.91570        8.11980       -0.90600
N        -15.54070        9.19160       -0.66140
C        -16.26480        3.16230       -0.75000
C        -15.10320        2.57720       -1.06950
C        -14.87390        1.22700       -0.71710
S        -15.33560       -0.00420       -1.79060
C        -14.78220       -1.26880       -0.75920
C        -14.22760       -0.72790        0.40200
C        -14.27680        0.71470        0.41630
C        -13.75220        1.53460        1.56080
C        -12.73880        0.76910        2.41840
C        -11.34510        0.74520        1.79140
F        -11.28180        1.39670        0.61220
F        -10.46530        1.35890        2.62310
F        -10.88080       -0.50670        1.59660
C        -13.28540       -0.63010        2.76180
C        -13.59610       -1.50120        1.53170
C        -14.90710       -2.64580       -1.13700
C        -15.47060       -3.06550       -2.28010
H          6.77260       42.88590       -1.35890
H          7.60390       41.12030       -2.99760
H          4.13790       42.93640       -1.40150
H          3.33580       39.38620       -4.84410
H          6.80810       37.53510       -6.38110
H          2.98720       37.75370       -6.97190
H          5.12900       35.71820       -6.74610
H          5.01110       35.27750      -10.12520
H          4.13170       36.80160       -9.90950
H          4.26150       35.82160      -12.26490
H          3.75860       33.53350      -11.69530
H          2.54450       34.20570      -12.80230
H          1.69130       32.75440      -10.90270
H          0.93050       34.32790      -11.15300
H         -0.13370       32.59370       -9.07990
H          0.13470       33.02070       -6.17510
H         -1.28190       30.61580       -8.62860
H         -2.34730       32.42390       -4.96060
H         -5.36400       28.81670       -6.59870
H         -4.29750       27.09140      -10.30530
H         -6.99900       27.01920       -7.40720
H         -6.19340       25.79890       -9.98280
H         -9.53180       26.68170      -11.06510
H         -9.07970       27.62400       -9.64270
H        -11.45550       27.91530      -10.42780
H        -11.88980       25.62990      -11.04660
H        -13.02580       26.18050       -9.79470
H        -12.03010       23.82600       -9.61970
H        -12.11480       24.87840       -8.18920
H         -9.63740       21.92980       -6.81640
H        -11.52970       22.09050       -9.07400
H        -13.76490       20.96060       -8.25110
H        -10.16570       19.37690       -6.69630
H        -14.28140       16.78230       -5.71670
H        -17.88870       18.42100       -7.18440
H        -16.35030       15.48150       -5.02770
H        -18.86810       16.64190       -6.04030
H        -21.60560       15.89860       -5.32260
H        -20.70670       16.71800       -4.03420
H        -23.15980       16.10940       -3.59220
H        -23.10460       13.86260       -4.44620
H        -23.52620       13.88830       -2.72250
H        -21.93130       12.07660       -3.48370
H        -21.47250       13.04640       -2.08500
H        -18.66720       11.15730       -2.51720
H        -19.74870       10.46050       -5.18860
H        -17.50630        9.14160       -2.54600
H        -20.75210        7.76930       -4.87660
H        -18.25850        4.28790       -2.29210
H        -14.97640        5.70630       -0.03700
H        -16.98400        2.61190       -0.25500
H        -14.37670        3.11090       -1.57200
H        -14.57520        1.82480        2.18000
H        -13.25050        2.38450        1.14740
H        -12.61000        1.29350        3.34210
H        -14.18710       -0.50990        3.32520
H        -12.51920       -1.13470        3.31240
H        -14.26700       -2.28060        1.82730
H        -12.66550       -1.88770        1.17190
H        -14.54030       -3.35990       -0.48850
H        -15.84790       -2.37900       -2.95180
H        -15.52660       -4.07490       -2.48750
