154
630_25_01010101.out	Energy:   -5687.7057458
C         -1.72990        2.55760       -0.12240
C         -1.52670        1.82760       -1.23510
C         -2.24410        0.55890       -1.07800
C         -2.88890        0.62850        0.24760
C         -2.56760        1.81450        0.79100
C         -3.68160       -0.34020        0.90900
N         -4.33770       -1.12900        1.45220
C         -2.27130       -0.44650       -1.97640
C         -3.00450       -1.69470       -1.80510
C         -2.76570       -2.48870       -2.86380
C         -1.86320       -1.78460       -3.76310
C         -1.57770       -0.56930       -3.26540
C         -0.71560        0.35140       -3.90250
N         -0.00360        1.10130       -4.43050
C         -3.20130       -3.85500       -2.95950
C         -4.36250       -4.34850       -2.49630
C         -4.77780       -5.72790       -2.54610
C         -4.41400       -6.65560       -3.52430
C         -3.64530       -6.48650       -4.76490
O         -3.49930       -5.40530       -5.34220
C         -2.99120       -7.70140       -5.38150
S         -5.06430       -8.21140       -3.16510
C         -5.87060       -7.65440       -1.78050
C         -5.65440       -6.31500       -1.55970
C         -6.31140       -5.65330       -0.47390
C         -5.83520       -5.55750        0.77680
C         -6.57630       -4.92690        1.84280
C         -5.99870       -4.32500        2.90520
C         -7.05600       -3.82890        3.79120
C         -8.32350       -4.22560        3.15950
C         -8.01860       -4.88240        2.02560
C         -9.65250       -4.00830        3.59110
N        -10.75160       -3.84390        3.92040
C         -6.87070       -3.16280        4.94920
C         -7.94530       -2.69090        5.81590
C         -7.40820       -2.10990        6.90350
C         -5.96030       -2.14220        6.75370
C         -5.62280       -2.76560        5.61160
C         -4.28610       -2.96240        5.18840
N         -3.18330       -3.11730        4.86080
C         -8.16730       -1.49030        7.96060
C         -9.37630       -1.90590        8.38320
C        -10.12790       -1.37250        9.49430
C        -11.52330       -1.35890        9.52910
C        -12.48780       -1.80690        8.51680
O        -12.15100       -2.28450        7.43140
C        -13.96750       -1.67830        8.81270
S        -12.09620       -0.69280       11.00950
C        -10.52980       -0.44770       11.60670
C         -9.56200       -0.83900       10.71230
C         -8.16740       -0.75910       11.02370
C         -7.58020        0.20270       11.75310
C         -6.16110        0.29940       11.99850
C         -5.21320       -0.52570       11.50320
C         -3.90470       -0.10710       12.00820
C         -4.16660        1.09750       12.80760
C         -5.49240        1.31660       12.79620
C         -3.24150        1.96350       13.43370
N         -2.49340        2.69130       13.93950
C         -2.74410       -0.76570       11.80120
C         -1.46970       -0.44840       12.44660
C         -0.57220       -1.40210       12.12770
C         -1.20590       -2.32990       11.20440
C         -2.48360       -1.96400       10.99010
C         -3.32900       -2.62660       10.06610
N         -4.00460       -3.17200        9.30240
C          0.75420       -1.44730       12.68900
C          1.19120       -2.50250       13.39720
C          2.42560       -2.55930       14.12930
C          2.52400       -2.17740       15.46600
C          1.48810       -1.66580       16.36610
O          0.28190       -1.81110       16.15270
C          1.92110       -0.95930       17.63620
S          4.11460       -2.42870       16.06460
C          4.66040       -3.04040       14.58040
C          3.67710       -3.04620       13.61380
C          3.92210       -3.53590       12.28870
C          5.11110       -3.47300       11.66480
C          5.35820       -3.98870       10.34590
C          6.32070       -3.50880        9.52960
C          6.31130       -4.28690        8.28560
C          5.26850       -5.30710        8.47410
C          4.73350       -5.12480        9.69130
C          4.83210       -6.32350        7.59640
N          4.43740       -7.16770        6.90300
C          7.10510       -4.07530        7.21460
C          7.08810       -4.86190        5.98170
C          8.00510       -4.35860        5.13170
C          8.66860       -3.24440        5.79010
C          8.13840       -3.04970        7.01080
C          8.53340       -2.00080        7.87250
N          8.85110       -1.12900        8.57150
C          8.25040       -4.88310        3.81300
C          7.31580       -4.94070        2.84830
C          7.54550       -5.51370        1.55210
C          7.18900       -6.82100        1.22600
C          6.58200       -7.86310        2.06160
O          6.50650       -7.77930        3.28950
C          5.99850       -9.08850        1.38020
S          7.60310       -7.17320       -0.40440
C          8.23200       -5.61920       -0.66930
C          8.12420       -4.80480        0.43720
C          8.57420       -3.44070        0.44010
C          8.68140       -2.64910       -0.63770
H         -1.34740        3.50020        0.05110
H         -0.96550        2.11100       -2.05350
H         -2.87280        2.14470        1.71990
H         -3.60840       -1.93050       -1.00220
H         -1.49700       -2.16250       -4.65090
H         -2.56360       -4.51820       -3.42700
H         -5.01740       -3.67770       -2.06490
H         -3.19890       -8.56190       -4.78050
H         -1.93330       -7.54930       -5.43310
H         -3.37820       -7.85310       -6.36750
H         -6.45510       -8.25130       -1.17470
H         -7.22500       -5.21450       -0.66870
H         -4.90350       -5.94970        0.98450
H         -4.98380       -4.23040        3.06610
H         -8.70860       -5.29520        1.37880
H         -8.95490       -2.78730        5.62520
H         -5.28880       -1.74340        7.42820
H         -7.75390       -0.66820        8.42780
H         -9.80900       -2.68350        7.86050
H        -14.10110       -1.25060        9.78430
H        -14.42250       -2.64630        8.78350
H        -14.42430       -1.04720        8.07920
H        -10.32530       -0.04970       12.53670
H         -7.55940       -1.50700       10.65480
H         -8.18790        0.92580       12.16880
H         -5.38400       -1.32290       10.87060
H         -5.96730        2.09320       13.28240
H         -1.28800        0.37090       13.04730
H         -0.74440       -3.14790       10.77680
H          1.38740       -0.64560       12.54270
H          0.59020       -3.34130       13.41670
H          2.98950       -0.91430       17.67280
H          1.55760       -1.49860       18.48600
H          1.52170        0.03330       17.64620
H          5.62390       -3.37230       14.41800
H          3.13330       -3.96500       11.78020
H          5.89610       -3.02630       12.16410
H          6.95700       -2.72530        9.74470
H          3.98700       -5.70700       10.10230
H          6.47450       -5.67000        5.79340
H          9.43370       -2.68560        5.38090
H          9.19640       -5.23430        3.59660
H          6.38170       -4.55160        3.05070
H          6.14280       -9.01120        0.32280
H          4.95190       -9.15090        1.59380
H          6.48980       -9.96670        1.74400
H          8.65010       -5.31660       -1.56290
H          8.83810       -3.03390        1.35100
H          8.42910       -3.01080       -1.57080
H          9.01610       -1.67840       -0.53380
