157
630_1151_01010101.out	Energy:   -4689.7508171
C         -6.94460       -1.82600       -4.95210
C         -8.00300       -1.61250       -4.13720
C         -7.78780       -0.37430       -3.40500
C         -6.48230        0.13730       -3.86900
C         -5.99560       -0.74150       -4.79050
C         -5.85260        1.32140       -3.44010
N         -5.32050        2.28770       -3.10350
C         -8.61220        0.20050       -2.48040
C         -8.39920        1.42480       -1.74970
C         -9.46400        1.64780       -0.91930
C        -10.41450        0.55010       -1.09590
C         -9.92240       -0.31610       -2.01910
C        -10.55780       -1.49630       -2.45480
N        -11.10480       -2.45440       -2.78980
C         -9.62210        2.76740       -0.02820
C        -10.67280        2.94900        0.78530
C        -10.81970        4.11220        1.72950
C        -10.63280        3.64220        3.17980
N        -12.25550        4.52460        1.61530
N        -12.65460        5.43180        0.90460
C        -11.77900        6.25970        0.02270
C        -10.40670        6.30160        0.57930
C         -9.94650        5.25970        1.40030
N         -8.73190        5.55540        1.79020
O         -8.43880        6.73390        1.22790
N         -9.45600        7.19700        0.49310
C        -11.80490        5.54830       -1.34520
C        -12.42770        7.60930       -0.10270
C        -11.83580        8.80330       -0.36300
C        -12.86000        9.82730       -0.43220
C        -14.13970        9.13080       -0.18460
C        -13.86460        7.81070        0.00590
C        -15.41630        9.72390       -0.14490
N        -16.47050       10.18980       -0.10590
C        -12.68640       11.16060       -0.67630
C        -13.69880       12.18380       -0.74580
C        -13.10550       13.39130       -0.99700
C        -11.66230       13.17400       -1.10280
C        -11.39970       11.85430       -0.91950
C        -10.12340       11.25750       -0.96730
N         -9.06750       10.79830       -1.02320
C        -13.78220       14.65470       -1.13820
C        -13.16270       15.82690       -1.33280
C        -13.86780       17.15030       -1.49310
C        -13.65470       17.68400       -2.91920
N        -15.33010       16.93280       -1.35490
N        -15.97920       17.15790       -0.34250
C        -15.40530       17.65260        0.93800
C        -14.11680       18.34670        0.70010
C        -13.38380       18.11120       -0.47210
N        -12.31840       18.87090       -0.44650
O        -12.37920       19.55600        0.70270
N        -13.47720       19.24510        1.40480
C        -15.21040       16.39530        1.80690
C        -16.42310       18.56790        1.55940
C        -17.67570       18.83540        1.10990
C        -18.30030       19.78710        2.00680
C        -17.29750       20.06350        3.05690
C        -16.18300       19.33340        2.77260
C        -17.45910       20.92730        4.15730
N        -17.56960       21.62880        5.06600
C        -19.54600       20.34030        1.90110
C        -20.16040       21.29700        2.78350
C        -21.41180       21.60450        2.31940
C        -21.64260       20.83520        1.09660
C        -20.54380       20.08030        0.83640
C        -20.38690       19.20910       -0.26050
N        -20.28820       18.50770       -1.17010
C        -22.33270       22.52230        2.93550
C        -23.56380       22.78630        2.47400
C        -24.55530       23.72560        3.10570
C        -24.06990       24.40310        4.38860
N        -24.74200       24.83720        2.11350
N        -25.67900       24.94160        1.34070
C        -26.81250       23.98670        1.21250
C        -26.90520       23.11920        2.41070
C        -25.83900       23.01140        3.31540
N        -26.21180       22.22470        4.29340
O        -27.46470       21.85030        4.01100
N        -27.89540       22.39470        2.86750
C        -26.51610       23.17060       -0.06050
C        -28.05580       24.81030        1.00200
C        -29.34350       24.41390        1.17430
C        -30.21970       25.52420        0.85840
C        -29.33030       26.63610        0.46520
C        -28.04510       26.19130        0.54850
C        -29.73490       27.92140        0.05610
N        -30.04200       28.97930       -0.28520
C        -31.58470       25.54920        0.92460
C        -32.45820       26.66990        0.69210
C        -33.75560       26.28250        0.89440
C        -33.75410       24.86290        1.25290
C        -32.47260       24.41520        1.27710
C        -32.06740       23.09380        1.55340
N        -31.76650       22.00210        1.77010
C        -34.91720       27.12340        0.78090
C        -36.17780       26.71580        0.98190
C        -37.37310       27.62300        0.83680
C        -37.90710       27.53530       -0.61330
N        -36.93200       29.01200        1.04750
N        -37.74180       29.89380        1.48040
C        -38.89910       29.64830        2.09700
C        -39.19880       28.30330        2.42720
C        -38.45750       27.27780        1.79220
N        -38.94180       26.12830        2.16730
O        -39.94280       26.40720        3.02800
N        -40.11160       27.72320        3.18960
C        -39.75460       30.80790        2.47860
H         -6.80040       -2.65800       -5.62480
H         -8.87270       -2.23890       -4.02770
H         -5.05990       -0.65960       -5.32250
H         -7.53070        2.05470       -1.85160
H        -11.35350        0.45380       -0.57250
H         -8.81300        3.49300       -0.03680
H        -11.49110        2.23790        0.82650
H        -11.32980        2.83510        3.39920
H        -10.82350        4.47210        3.85840
H         -9.61240        3.29000        3.32200
H        -11.36850        4.55480       -1.25270
H        -11.23280        6.12890       -2.06670
H        -12.83420        5.45670       -1.68860
H        -10.78220        8.98580       -0.49320
H        -14.57080        7.02290        0.21850
H        -14.75430       12.01040       -0.61460
H        -10.93280       13.94420       -1.30180
H        -14.86640       14.61990       -1.08150
H        -12.08130       15.89580       -1.39410
H        -14.03750       16.96310       -3.63950
H        -12.59390       17.85110       -3.09900
H        -14.19010       18.62480       -3.03690
H        -14.46380       15.74660        1.35080
H        -16.15440       15.85800        1.88230
H        -14.87650       16.68280        2.80240
H        -18.13840       18.42100        0.22980
H        -15.26030       19.32040        3.33240
H        -19.69630       21.70030        3.66850
H        -22.54350       20.87020        0.50320
H        -21.96630       23.00250        3.83770
H        -23.93140       22.30630        1.57250
H        -23.16900       24.98190        4.19170
H        -23.86910       23.65800        5.15690
H        -24.84540       25.07800        4.74870
H        -25.61160       22.58070        0.07860
H        -26.37550       23.84740       -0.90180
H        -27.35230       22.50480       -0.26670
H        -29.67930       23.44910        1.51660
H        -27.14830       26.75040        0.33030
H        -32.12590       27.65850        0.42090
H        -34.63590       24.27630        1.46080
H        -34.72910       28.16200        0.52230
H        -36.41620       25.69130        1.24780
H        -37.12090       27.83810       -1.30220
H        -38.76180       28.20030       -0.72580
H        -38.21060       26.51300       -0.83170
H        -39.38540       31.71680        2.00630
H        -39.74760       30.94300        3.56290
H        -40.78820       30.63240        2.17620
