146
630_257_01010101.out	Energy:   -3735.9418155
C         -1.31840      -14.41190        1.26560
C         -0.19000      -13.90340        1.79260
C         -0.22920      -12.44620        1.62400
C         -1.51240      -12.16290        0.95900
C         -2.13430      -13.33570        0.75400
C         -2.07720      -10.91590        0.60730
N         -2.55460       -9.90330        0.30290
C          0.73190      -11.57670        2.00080
C          0.70650      -10.13220        1.76260
C          1.82180       -9.59170        2.28290
C          2.63580      -10.67330        2.83040
C          2.00250      -11.85120        2.68360
C          2.54030      -13.07420        3.11960
N          2.99910      -14.08670        3.50020
C          2.24220       -8.22300        2.16560
C          1.52180       -7.08920        2.25580
C          2.09710       -5.76570        2.20600
C          3.27520       -5.44890        1.53320
C          4.22240       -6.23080        0.68770
N          3.51920       -4.12000        1.73820
C          2.54650       -3.55460        2.51620
C          2.67690       -2.12000        2.89500
C          1.60750       -4.54040        2.80750
C          0.44100       -4.30910        3.61850
C         -0.29990       -3.17400        3.69520
C         -1.33690       -3.33780        4.72220
C         -1.17030       -4.71460        5.21420
C         -0.12170       -5.25570        4.57360
C         -1.89270       -5.39530        6.22270
N         -2.47730       -5.95820        7.05360
C         -2.23660       -2.41510        5.13330
C         -3.30190       -2.70120        6.09580
C         -4.13120       -1.64030        6.18140
C         -3.62340       -0.60630        5.26860
C         -2.49440       -1.04130        4.66590
C         -1.80150       -0.31680        3.66800
N         -1.21210        0.30160        2.88030
C         -5.46970       -1.84160        6.69420
C         -6.16980       -0.93400        7.37350
C         -7.49040       -1.12000        7.88270
C         -7.76610       -0.77480        9.19160
C         -6.89060       -0.22030       10.25810
N         -9.08040       -1.05400        9.42100
C         -9.66930       -1.57150        8.29230
C        -11.11150       -1.93810        8.36050
C         -8.70390       -1.62060        7.28210
C         -8.93660       -2.07350        5.93160
C         -8.08710       -2.06580        4.87260
C         -8.75660       -2.60160        3.69410
C        -10.06940       -2.83060        4.09650
C        -10.20940       -2.55280        5.39700
C        -11.23500       -3.19110        3.19010
N        -12.20200       -3.49020        2.43810
C         -8.34220       -3.01420        2.49910
C         -9.09450       -3.37020        1.30830
C         -8.24480       -3.89780        0.41620
C         -6.90580       -3.86210        0.99840
C         -7.00070       -3.35220        2.23500
C         -5.84810       -2.99910        3.16100
N         -4.89200       -2.70610        3.92920
C         -8.67390       -4.32530       -0.88490
C         -9.05370       -3.49520       -1.86950
C         -9.27720       -3.88510       -3.22820
C        -10.36260       -3.41000       -3.94640
C        -11.49140       -2.50740       -3.58240
N        -10.28290       -3.94620       -5.19910
C         -9.17820       -4.75330       -5.31860
C         -8.94200       -5.45050       -6.61380
C         -8.48850       -4.72610       -4.10590
C         -7.25250       -5.43360       -3.84230
C         -6.63170       -6.35130       -4.62180
C         -5.50580       -6.94160       -3.89110
C         -5.54270       -6.33970       -2.56530
C         -6.46230       -5.36990       -2.61950
C         -4.77200       -6.59080       -1.40870
N         -4.19740       -6.75810       -0.41480
C         -4.59210       -7.79630       -4.38390
C         -3.50050       -8.38280       -3.61790
C         -2.74980       -9.12440       -4.45290
C         -3.32820       -9.05260       -5.77830
C         -4.42710       -8.28320       -5.75490
C         -5.19610       -7.97830       -6.91420
N         -5.80680       -7.73040       -7.85420
C         -1.58840       -9.83710       -4.01110
C         -0.37000       -9.64420       -4.53740
C          0.80940      -10.32890       -4.12490
C          2.06940      -10.11290       -4.65160
C          2.54720       -9.17870       -5.70550
N          2.93010      -10.97360       -4.01100
C          2.24830      -11.72340       -3.08510
C          2.91370      -12.73460       -2.23230
C          0.92600      -11.33670       -3.13660
H         -1.56270      -15.41400        1.23220
H          0.56930      -14.44280        2.23700
H         -3.05410      -13.45020        0.30040
H         -0.04280       -9.61530        1.27630
H          3.56300      -10.55170        3.26690
H          3.24930       -8.08840        1.98470
H          0.49900       -7.17070        2.36680
H          3.89140       -7.24650        0.62710
H          5.19910       -6.19940        1.12370
H          4.25660       -5.80760       -0.29450
H          4.29340       -3.63330        1.37360
H          3.56170       -1.71310        2.45190
H          2.74050       -2.03660        3.95980
H          1.82200       -1.57970        2.54530
H         -0.15670       -2.32820        3.12140
H          0.23650       -6.21000        4.73510
H         -3.40300       -3.57980        6.62750
H         -4.06300        0.31410        5.11150
H         -5.91490       -2.75630        6.52080
H         -5.72030       -0.02110        7.54570
H         -5.90380       -0.07580        9.87030
H         -6.85400       -0.90360       11.08070
H         -7.28390        0.71750       10.59080
H         -9.54380       -0.90560       10.27690
H        -11.48420       -1.73810        9.34340
H        -11.22560       -2.97910        8.14070
H        -11.66050       -1.36050        7.64650
H         -7.11150       -1.73020        4.89830
H        -11.08100       -2.66020        5.93900
H        -10.10910       -3.23930        1.17260
H         -6.03700       -4.17510        0.53770
H         -8.69160       -5.33920       -1.07670
H         -9.19510       -2.50180       -1.62840
H        -11.38130       -2.19050       -2.56640
H        -12.41750       -3.03160       -3.69420
H        -11.48580       -1.65220       -4.22540
H        -10.93100       -3.77700       -5.92060
H         -9.72200       -5.19890       -7.30170
H         -8.93550       -6.50840       -6.45330
H         -7.99900       -5.14500       -7.01650
H         -6.90930       -6.59780       -5.58470
H         -6.59640       -4.66020       -1.88230
H         -3.33200       -8.25200       -2.60820
H         -2.95150       -9.52300       -6.61600
H         -1.69400      -10.53030       -3.25390
H         -0.28020       -8.94980       -5.29560
H          1.72320       -8.60240       -6.07150
H          2.97640       -9.73830       -6.51020
H          3.28560       -8.52330       -5.29310
H          3.89560      -11.04200       -4.19070
H          3.95710      -12.76810       -2.46680
H          2.47700      -13.69500       -2.41100
H          2.78770      -12.47150       -1.20280
H          0.15870      -11.71400       -2.55870
