178
630_350_01010101.out	Energy:   -4738.2938392
C          5.82290       35.41410      -14.02260
C          6.48100       34.50880      -13.27700
C          5.53340       33.94160      -12.31110
C          4.24950       34.61920      -12.57640
C          4.44690       35.48200      -13.58900
C          3.00270       34.45620      -11.94270
N          1.97020       34.31680      -11.41280
C          5.82160       32.99590      -11.39200
C          4.87450       32.43300      -10.43280
C          5.50820       31.51870       -9.67220
C          6.89140       31.44710      -10.11900
C          7.09640       32.31810      -11.12200
C          8.35380       32.50220      -11.73660
N          9.39810       32.64460      -12.22690
C          4.84060       30.81000       -8.60860
C          5.40670       29.86410       -7.84530
C          4.64490       29.13620       -6.81670
C          4.00130       27.96860       -7.24760
C          3.27420       27.18920       -6.35520
C          3.19390       27.60190       -5.01780
C          3.81090       28.77700       -4.52900
C          4.55380       29.55570       -5.45880
C          5.17910       30.72540       -4.98630
C          5.09770       31.11780       -3.65270
C          4.36650       30.37290       -2.73500
C          3.70660       29.19170       -3.14980
C          2.97560       28.50120       -2.14700
C          2.90620       28.95560       -0.82570
C          3.56550       30.11710       -0.45570
C          4.29320       30.82080       -1.40720
C          2.61440       25.96160       -6.80970
C          1.47540       25.47230       -6.27420
C          1.11360       24.24970       -6.98500
C          2.14610       24.06450       -8.00370
C          3.02560       25.07260       -7.88800
C          2.28980       23.03210       -8.97470
N          2.40100       22.18890       -9.76890
C          0.03790       23.48710       -6.71140
C         -0.31460       22.27350       -7.43120
C         -1.42370       21.73990       -6.88490
C         -1.84320       22.61140       -5.79620
C         -0.99210       23.64570       -5.67770
C         -1.11720       24.64590       -4.69020
N         -1.21710       25.45930       -3.87080
C         -2.05090       20.51150       -7.30800
C         -1.64000       19.77120       -8.35050
C         -2.32380       18.55040       -8.79680
C         -3.32600       18.72850       -9.76390
C         -4.00560       17.63520      -10.28450
C         -3.67050       16.35620       -9.82400
C         -2.65820       16.11890       -8.85050
C         -1.97620       17.25160       -8.32700
C         -0.97170       17.03880       -7.35620
C         -0.61870       15.76240       -6.92520
C         -1.27280       14.64310       -7.42520
C         -2.30620       14.79740       -8.38470
C         -2.93090       13.60330       -8.82260
C         -2.55330       12.34280       -8.34800
C         -1.53330       12.22750       -7.41670
C         -0.89650       13.37380       -6.95720
C         -5.05660       17.82620      -11.28640
C         -6.35300       18.03380      -10.97510
C         -7.10460       18.20170      -12.22640
C         -6.12600       18.08470      -13.30710
C         -4.92490       17.85850      -12.73600
C         -6.28180       18.16150      -14.81710
N         -6.41100       18.22510      -16.06980
C         -8.42660       18.41370      -12.32870
C         -9.13930       18.57290      -13.58770
C        -10.44540       18.74990      -13.32160
C        -10.62050       18.71960      -11.87600
C         -9.43600       18.52340      -11.27400
C         -9.27640       18.44850       -9.87460
N         -9.15970       18.39260       -8.72340
C        -11.41650       18.92630      -14.36810
C        -12.72060       19.12490      -14.13980
C        -13.69210       19.29200      -15.22730
C        -14.27830       18.11640      -15.71340
C        -15.21550       18.15590      -16.74200
C        -15.55920       19.40680      -17.27040
C        -15.00030       20.63110      -16.81340
C        -14.04700       20.56070      -15.76190
C        -13.49060       21.76540      -15.28270
C        -13.83800       23.00170      -15.82230
C        -14.76260       23.09000      -16.85770
C        -15.36180       21.91330      -17.37120
C        -16.29430       22.09760      -18.42470
C        -16.60970       23.36090      -18.93550
C        -16.00520       24.49130      -18.41010
C        -15.08630       24.35500      -17.37580
C        -15.82540       16.92030      -17.25570
C        -15.20140       15.72150      -17.27070
C        -16.11040       14.71710      -17.82560
C        -17.33880       15.44930      -18.16390
C        -17.15430       16.73710      -17.82460
C        -18.52810       14.96160      -18.75180
N        -19.50750       14.56970      -19.23560
C        -15.82910       13.40430      -17.96520
C        -16.74070       12.38720      -18.49120
C        -16.11870       11.19130      -18.47400
C        -14.77830       11.39390      -17.94230
C        -14.59140       12.68640      -17.63290
C        -13.38170       13.17730      -17.09200
N        -12.38340       13.56360      -16.64240
C        -16.74110        9.96720      -18.91810
C        -16.13000        8.77320      -18.89440
C        -16.78450        7.54040      -19.35640
C        -17.48190        6.79940      -18.39420
C        -18.11340        5.61990      -18.75080
C        -18.04980        5.17470      -20.06990
C        -17.35520        5.88110      -21.08310
C        -16.71190        7.09390      -20.70780
C        -16.01490        7.81220      -21.70060
C        -15.94410        7.36560      -23.01860
C        -16.56450        6.17850      -23.40280
C        -17.28020        5.41690      -22.44640
C        -17.88210        4.22120      -22.91720
C        -17.78190        3.80380      -24.24720
C        -17.07390        4.56940      -25.15910
C        -16.46930        5.75020      -24.73840
H          6.23640       35.97280      -14.78540
H          7.47770       34.25720      -13.36820
H          3.72540       36.09860      -13.99430
H          3.87930       32.69370      -10.35080
H          7.60940       30.81980       -9.72380
H          3.85420       31.04840       -8.42100
H          6.40470       29.63990       -7.98250
H          4.06760       27.68440       -8.23740
H          2.65760       27.01880       -4.35650
H          5.71370       31.30950       -5.64820
H          5.58630       31.97200       -3.34190
H          2.47800       27.63370       -2.40190
H          2.36380       28.42540       -0.12600
H          3.51620       30.45630        0.51770
H          4.78670       31.68490       -1.13370
H          0.94850       25.89270       -5.49280
H          3.86550       25.19860       -8.47420
H          0.20330       21.88310       -8.23380
H         -2.67290       22.45770       -5.20210
H         -2.86960       20.17970       -6.77430
H         -0.79910       20.07630       -8.86520
H         -3.55940       19.67930      -10.09040
H         -4.18160       15.54630      -10.20840
H         -0.48450       17.85470       -6.95390
H          0.13450       15.64700       -6.22920
H         -3.69200       13.66580       -9.51670
H         -3.03490       11.49730       -8.69200
H         -1.24940       11.29870       -7.06760
H         -0.13730       13.29130       -6.26320
H         -6.74840       18.06860      -10.02250
H         -4.04080       17.72740      -13.25190
H         -8.71340       18.55330      -14.52750
H        -11.52190       18.83240      -11.38640
H        -11.09050       18.89830      -15.34690
H        -13.05490       19.16190      -13.16410
H        -14.01160       17.20780      -15.30310
H        -16.25500       19.44130      -18.03170
H        -12.80690       21.72960      -14.51050
H        -13.40470       23.86120      -15.44990
H        -16.75720       21.26860      -18.82910
H        -17.29280       23.45100      -19.70380
H        -16.23480       25.42580      -18.78290
H        -14.63510       25.19580      -16.98270
H        -14.23900       15.54300      -16.94360
H        -17.85240       17.48690      -17.94890
H        -17.70340       12.55790      -18.82150
H        -14.07320       10.65020      -17.82070
H        -17.70900       10.01290      -19.27310
H        -15.16300        8.71790      -18.53820
H        -17.52520        7.13280      -17.41850
H        -18.62870        5.07320      -18.04330
H        -18.52800        4.29480      -20.31890
H        -15.54370        8.69380      -21.44390
H        -15.42630        7.92030      -23.71810
H        -18.41380        3.63790      -22.25240
H        -18.23450        2.92690      -24.54930
H        -16.99540        4.26650      -26.14260
H        -15.94250        6.32080      -25.41810
