174
630_698_01010101.out	Energy:   -7313.4042868
C        -18.90850       46.38410      -14.53270
C        -17.97400       46.14930      -13.59450
C        -17.07380       45.11350      -14.10800
C        -17.58440       44.76710      -15.44650
C        -18.66730       45.53080      -15.67300
C        -17.09640       43.81800      -16.37790
N        -16.70660       43.04260      -17.14840
C        -16.00700       44.61100      -13.45660
C        -15.11140       43.58830      -13.98170
C        -14.16180       43.35590      -13.06100
C        -14.39490       44.20170      -11.91020
C        -15.48930       44.94890      -12.12370
C        -15.98980       45.86580      -11.17700
N        -16.39210       46.62310      -10.38680
C        -13.08690       42.43850      -13.23750
C        -13.26140       41.12730      -13.43200
C        -12.15190       40.24860      -13.50450
S        -12.38740       38.67160      -12.92510
C        -10.74790       38.21140      -13.14440
C        -10.02750       39.25570      -13.70400
C        -10.85260       40.42040      -13.95110
C        -10.27210       41.66970      -14.55700
F        -11.11280       42.22550      -15.47500
C         -8.92470       41.44130      -15.22940
F         -9.08600       40.74370      -16.39000
C         -8.00610       40.65150      -14.31960
F         -7.88980       41.32270      -13.13630
C         -8.56770       39.24280      -14.08860
F         -7.80410       38.62240      -13.14370
C        -10.29690       36.90990      -12.77740
C        -11.12400       35.99220      -12.25970
C        -10.72880       34.67340      -11.89140
C        -11.59630       33.64460      -11.90680
C        -10.90070       32.46360      -11.42090
C         -9.54470       32.90980      -11.07020
C         -9.46410       34.21770      -11.35410
C         -8.46770       32.17300      -10.52200
N         -7.57910       31.57950      -10.08130
C        -11.44470       31.23680      -11.34350
C        -10.75240       30.06080      -10.85650
C        -11.58820       29.00890      -10.92960
C        -12.84300       29.46110      -11.50060
C        -12.78380       30.78130      -11.72690
C        -13.86460       31.52210      -12.25080
N        -14.75960       32.12000      -12.67680
C        -11.21810       27.67230      -10.56950
C        -10.30370       27.40750       -9.62650
C         -9.97990       26.07310       -9.31110
S        -10.88810       25.27090       -8.10820
C         -9.92160       23.86650       -8.20830
C         -8.89140       24.01710       -9.11790
C         -8.97230       25.27470       -9.81840
C         -7.98710       25.64380      -10.89820
F         -8.60970       26.21350      -11.96980
C         -7.17880       24.43690      -11.39420
F         -7.95840       23.61460      -12.15690
C         -6.65200       23.63220      -10.21900
F         -5.92180       24.46580       -9.42200
C         -7.81740       23.01240       -9.43440
F         -7.32260       22.43890       -8.30010
C        -10.23600       22.76990       -7.37570
C        -11.09490       21.83580       -7.80140
C        -11.44170       20.70880       -6.99150
C        -12.71030       20.40370       -6.65960
C        -12.68970       19.16900       -5.87990
C        -11.26970       18.80600       -5.74000
C        -10.55220       19.72080       -6.41010
C        -10.68270       17.72650       -5.04260
N        -10.18870       16.84270       -4.47420
C        -13.78320       18.51260       -5.44850
C        -13.75910       17.23710       -4.74770
C        -15.02750       16.84400       -4.54290
C        -15.92270       17.85410       -5.07640
C        -15.20380       18.86070       -5.60050
C        -15.78530       20.03330       -6.13680
N        -16.27260       20.99140       -6.57300
C        -15.33980       15.62690       -3.86110
C        -16.02010       14.62190       -4.42550
C        -16.27970       13.46130       -3.66300
S        -17.69350       13.43410       -2.73050
C        -17.39200       11.85040       -2.14020
C        -16.16430       11.38240       -2.57730
C        -15.55140       12.29550       -3.51720
C        -14.23850       11.97970       -4.17680
F        -14.25390       12.32750       -5.49520
C        -13.86690       10.49460       -4.06670
F        -14.66370        9.73930       -4.87940
C        -14.04560        9.99900       -2.64160
F        -13.29190       10.78130       -1.81570
C        -15.52640       10.05610       -2.24020
F        -15.62850        9.77490       -0.90880
C        -18.33830       11.23010       -1.28530
C        -19.64730       11.49130       -1.40900
C        -20.65180       10.94210       -0.55770
C        -21.96070       11.23480       -0.69220
C        -22.69180       10.49500        0.32960
C        -21.67930        9.76700        1.09910
C        -20.48460       10.03700        0.55990
C        -21.82200        8.93010        2.22620
N        -21.91830        8.23500        3.14970
C        -24.02850       10.48820        0.47540
C        -24.73970        9.70620        1.47520
C        -26.05800        9.92000        1.32380
C        -26.24970       10.83120        0.20780
C        -25.05850       11.19730       -0.29180
C        -24.91270       12.13430       -1.33950
N        -24.80840       12.91350       -2.19350
C        -27.03480        9.28540        2.15970
C        -28.23930        9.81620        2.40710
C        -29.11100        9.17310        3.31700
S        -29.04020        9.61240        4.96260
C        -30.24260        8.47570        5.43470
C        -30.69610        7.76930        4.32510
C        -30.06120        8.19660        3.09290
C        -30.38060        7.55020        1.76760
F        -30.46370        8.46710        0.76040
C        -31.68690        6.74910        1.80310
F        -32.76320        7.58730        1.85600
C        -31.72510        5.84950        3.02500
F        -30.62580        5.04060        2.99390
C        -31.74860        6.68760        4.31240
F        -31.61640        5.84680        5.37750
C        -30.66790        8.38980        6.79720
C        -29.84870        8.62110        7.83340
H        -19.67770       47.06730      -14.45070
H        -17.90350       46.61540      -12.67650
H        -19.23960       45.51050      -16.53150
H        -15.19260       43.12410      -14.89990
H        -13.81160       44.22650      -11.05920
H        -12.12250       42.80510      -13.21420
H        -14.21690       40.75000      -13.53050
H        -10.13530       42.33440      -13.72980
H         -8.49450       42.39890      -15.43650
H         -7.04210       40.54870      -14.77230
H         -8.52030       38.69780      -15.00820
H         -9.30330       36.66740      -12.91470
H        -12.11130       36.25740      -12.11840
H        -12.58180       33.68650      -12.21000
H         -8.62970       34.80810      -11.21160
H         -9.78030       30.03440      -10.51110
H        -13.65650       28.85870      -11.70170
H        -11.67320       26.88340      -11.05490
H         -9.83590       28.18230       -9.13060
H         -7.31810       26.34710      -10.44800
H         -6.36470       24.81180      -11.97860
H         -6.03250       22.83230      -10.56730
H         -8.28460       22.26650      -10.04290
H         -9.80460       22.68910       -6.44170
H        -11.51780       21.93100       -8.73800
H        -13.55050       20.94730       -6.91200
H         -9.52400       19.72150       -6.49850
H        -12.91270       16.72280       -4.45780
H        -16.95340       17.80640       -5.05610
H        -15.02490       15.51780       -2.88440
H        -16.34930       14.69350       -5.40100
H        -13.50270       12.55480       -3.65470
H        -12.84270       10.39850       -4.36110
H        -13.72550        8.98090       -2.56420
H        -16.06450        9.32450       -2.80580
H        -18.01570       10.57060       -0.56010
H        -19.94610       12.12730       -2.16480
H        -22.37230       11.86990       -1.39390
H        -19.58300        9.65850        0.88990
H        -24.30550        9.09140        2.18120
H        -27.16490       11.14940       -0.14750
H        -26.79890        8.37780        2.59070
H        -28.52950       10.68800        1.93730
H        -29.56780        6.88060        1.57810
H        -31.72900        6.15850        0.91190
H        -32.61420        5.25420        3.01390
H        -32.68470        7.20290        4.36830
H        -31.64970        8.13850        6.99200
H        -28.86250        8.87410        7.66500
H        -30.20450        8.54620        8.79920
