138
630_954_01010101.out	Energy:   -5387.6156891
C         -0.11380        4.10270        3.64630
C         -0.99410        3.49390        2.81120
C         -1.65880        4.50540        2.01590
C         -1.09300        5.79030        2.45410
C         -0.17050        5.52860        3.43030
C         -1.43840        7.06460        1.96830
N         -1.70020        8.12080        1.58440
C         -2.62150        4.31830        1.05380
C         -3.28080        5.30760        0.26590
C         -4.19350        4.69910       -0.57000
C         -4.12790        3.25810       -0.32600
C         -3.19710        3.01600        0.63260
C         -2.85540        1.74130        1.12570
N         -2.61020        0.67880        1.50170
C         -5.05190        5.35090       -1.49990
C         -5.96730        4.69980       -2.26640
N         -6.80250        5.30920       -3.14950
C         -7.77430        4.69730       -3.92080
C         -8.22180        3.43390       -4.13640
S         -9.51210        3.45740       -5.28790
C         -9.43660        5.17760       -5.47050
C         -8.46230        5.69450       -4.67480
N         -7.91190        6.92560       -4.36980
C         -6.82690        6.74620       -3.40490
C         -8.23760        8.17520       -4.81680
C         -7.56790        9.34200       -4.50080
C         -8.21350       10.42570       -5.15270
C         -9.34700        9.84340       -5.89530
C         -9.34470        8.49160       -5.68890
C        -10.27210       10.53530       -6.69910
N        -11.04780       11.06880       -7.36600
C         -7.85760       11.76590       -5.13040
C         -8.50870       12.86040       -5.75350
C         -7.79560       14.02230       -5.50610
C         -6.64290       13.66890       -4.68980
C         -6.67180       12.32770       -4.44930
C         -5.72430       11.60870       -3.69710
N         -4.93620       11.03240       -3.08170
C         -8.12790       15.32650       -5.97140
C         -7.33490       16.41590       -5.79240
N         -7.63390       17.66710       -6.24040
C         -6.82720       18.78640       -6.15470
C         -5.60720       19.09580       -5.64540
S         -5.25900       20.76630       -5.92990
C         -6.76750       21.03520       -6.73580
C         -7.49150       19.88480       -6.77850
N         -8.71520       19.44230       -7.24600
C         -8.87470       18.02490       -6.92000
C         -9.71140       20.11940       -7.89070
C        -10.95930       19.61210       -8.20120
C        -11.70460       20.61920       -8.86820
C        -10.81650       21.79270       -8.96590
C         -9.62710       21.48020       -8.36770
C        -11.12440       23.03540       -9.55030
N        -11.34200       24.06690      -10.01890
C        -13.01480       20.54970       -9.31880
C        -13.76150       21.53350      -10.01510
C        -15.04500       21.06280      -10.24190
C        -15.13300       19.72630       -9.67230
C        -13.92620       19.40220       -9.12720
C        -13.62040       18.19220       -8.47710
N        -13.39140       17.19440       -7.94370
C        -16.09130       21.75770      -10.91390
C        -17.35990       21.28160      -11.02130
N        -18.37550       21.92490      -11.66190
C        -19.68840       21.50160      -11.74830
C        -20.42530       20.45250      -11.30130
S        -22.06320       20.61640      -11.83390
C        -21.73870       22.10440      -12.65860
C        -20.42960       22.44570      -12.52050
N        -19.56930       23.45370      -12.91440
C        -18.22870       23.17680      -12.39750
C        -19.79040       24.53520      -13.72240
C        -18.82550       25.42260      -14.16320
C        -19.44720       26.39210      -14.99200
C        -20.88060       26.05370      -15.01930
C        -21.07040       24.93410      -14.25360
C        -21.89650       26.74370      -15.70480
N        -22.75280       27.29210      -16.25150
C        -18.84780       27.44160      -15.67650
C        -19.46220       28.39590      -16.52040
C        -18.49610       29.25750      -17.02200
C        -17.21170       28.84300      -16.47840
C        -17.40330       27.76110      -15.67220
C        -16.40090       27.06780      -14.96950
N        -15.56630       26.50760      -14.40210
C        -18.64580       30.35720      -17.91040
C        -19.85210       30.74960      -18.40810
N        -20.06130       31.78020      -19.26590
C        -19.16860       32.65490      -19.86840
C        -17.82480       32.83930      -19.96760
S        -17.47910       34.19060      -20.99200
C        -19.16020       34.50250      -21.28460
C        -19.92070       33.59850      -20.62610
N        -21.29280       33.38280      -20.44260
C        -21.42440       32.14300      -19.67720
H          0.53460        3.62370        4.36470
H         -1.18300        2.43590        2.73420
H          0.42290        6.25790        3.96080
H         -3.09240        6.36710        0.32380
H         -4.72290        2.51310       -0.83280
H         -4.95630        6.42920       -1.57300
H         -6.09570        3.62380       -2.21480
H         -7.88650        2.50720       -3.70560
H        -10.11010        5.66960       -6.14820
H         -7.03500        7.30590       -2.48340
H         -5.87070        7.08300       -3.82740
H         -6.70190        9.42650       -3.86770
H        -10.04910        7.78560       -6.09660
H         -9.41580       12.79670       -6.33190
H         -5.89640       14.36020       -4.32870
H         -9.06340       15.42400       -6.51250
H         -6.38120       16.35220       -5.27930
H         -4.90210       18.46750       -5.13070
H         -7.00280       22.01480       -7.11000
H         -9.00850       17.43400       -7.83580
H         -9.73790       17.87140       -6.25850
H        -11.31650       18.62200       -7.97750
H         -8.77110       22.12840       -8.27830
H        -13.38730       22.49680      -10.32060
H        -16.00860       19.09500       -9.68860
H        -15.83820       22.72160      -11.34310
H        -17.65470       20.33580      -10.57910
H        -20.12280       19.60920      -10.70610
H        -22.53400       22.60670      -13.17860
H        -17.89710       23.98740      -11.73490
H        -17.50980       23.06240      -13.21990
H        -17.77520       25.38710      -13.93100
H        -22.01180       24.44260      -14.07220
H        -20.51720       28.43490      -16.73560
H        -16.27130       29.32800      -16.69330
H        -17.74390       30.89020      -18.18500
H        -20.76080       30.22690      -18.12390
H        -17.01410       32.28730      -19.52780
H        -19.46270       35.31570      -21.92050
H        -21.83500       33.37830      -21.30020
H        -21.86490       31.34290      -20.28970
H        -22.05010       32.30450      -18.79140
