118
630_533_01010101.out	Energy:   -3500.9435148
C         -8.00900       -8.56970        0.70830
C         -9.04140       -7.71520        0.59300
C         -8.79270       -6.57660        1.48650
C         -7.50190       -6.86670        2.13670
C         -7.05990       -8.04440        1.66150
C         -6.79690       -6.10020        3.09220
N         -6.21260       -5.47770        3.87880
C         -9.60380       -5.50790        1.64120
C         -9.36330       -4.36650        2.52460
C        -10.37300       -3.48630        2.37320
C        -11.32810       -4.04320        1.43400
C        -10.88590       -5.22660        0.98600
C        -11.60430       -6.00850        0.05420
N        -12.20560       -6.63780       -0.71260
C        -10.47790       -2.26670        3.12240
C        -11.11010       -1.17060        2.67900
C        -11.18950       -0.00070        3.47600
O        -11.79110        1.15070        3.03270
C        -11.71870        2.11670        4.00690
C        -11.06470        1.56010        5.09450
C        -10.73270        0.23730        4.76140
C        -12.24470        3.41970        3.84280
C        -12.15050        4.35630        4.80770
C        -12.79210        5.57770        4.33190
C        -13.27770        5.26560        2.97640
C        -12.94200        3.99280        2.70640
C        -13.96680        6.09730        2.06480
N        -14.53130        6.78100        1.31550
C        -12.88960        6.72240        5.03810
C        -13.55090        7.93230        4.57030
C        -13.44760        8.88280        5.51910
C        -12.74750        8.30700        6.65720
C        -12.39580        7.03750        6.38710
C        -11.66840        6.22570        7.28010
N        -11.06130        5.55280        8.01420
C        -14.02220       10.19910        5.42010
C        -14.17280       10.85690        4.25980
C        -14.72830       12.15820        4.22540
O        -15.16010       12.83140        5.33560
C        -15.63250       14.06640        4.97980
C        -15.50160       14.18370        3.60600
C        -14.94080       12.97760        3.13030
C        -16.14350       14.98710        5.91970
C        -16.72260       14.58730        7.07290
C        -17.14420       15.78420        7.81030
C        -16.77470       16.85280        7.00240
C        -16.18160       16.42800        5.87910
C        -17.03290       18.32500        7.27890
N        -17.24720       19.54630        7.50820
C        -17.80700       15.99370        8.94510
C        -18.18040       17.19070        9.69690
C        -18.98640       16.82110       10.71290
C        -19.08320       15.37530       10.68710
C        -18.38050       14.93420        9.63930
C        -18.14040       13.46150        9.34970
N        -17.94130       12.23970        9.10940
C        -19.51720       17.72350       11.69370
C        -20.69440       17.51310       12.29750
C        -21.17010       18.42490       13.26620
O        -20.35040       19.18090       14.06140
C        -21.10630       19.93830       14.91700
C        -22.43910       19.67350       14.63660
C        -22.47810       18.71510       13.60520
C        -20.53050       20.80310       15.87570
C        -21.28180       21.53640       16.71890
C        -20.39050       22.31800       17.57050
C        -19.02550       21.96660       17.14420
C        -19.12910       21.07170       16.14710
C        -17.79000       22.43600       17.64140
N        -16.77100       22.81980       18.04820
C        -20.80160       23.17150       18.52870
C        -19.92080       23.96390       19.37590
C        -20.67410       24.72170       20.19660
C        -22.07170       24.40640       19.94680
C        -22.16860       23.50920       18.95290
C        -23.40270       23.02660       18.46090
N        -24.41680       22.63210       18.05450
C        -20.15130       25.60530       21.20420
C        -18.99840       26.28090       21.08170
C        -18.53800       27.14840       22.10280
O        -17.73800       28.23420       21.83220
C        -17.47770       28.87240       22.99760
C        -18.06710       28.21460       24.04580
C        -18.74240       27.11180       23.47730
H         -7.91070       -9.46040        0.19630
H         -9.86470       -7.83820       -0.01690
H         -6.17700       -8.50290        1.93600
H         -8.55590       -4.25420        3.15750
H        -12.21460       -3.59570        1.15310
H        -10.04140       -2.23140        4.05690
H        -11.54550       -1.17850        1.74330
H        -10.85870        2.03290        5.98840
H        -10.23730       -0.43660        5.36590
H        -11.70040        4.23080        5.72790
H        -13.14860        3.49790        1.82470
H        -14.02250        8.04360        3.65920
H        -12.54980        8.80040        7.54180
H        -14.33520       10.66170        6.28790
H        -13.87900       10.40670        3.37890
H        -15.76530       15.00180        3.03480
H        -14.72850       12.74920        2.14650
H        -16.84690       13.61050        7.38160
H        -15.81720       17.02510        5.12040
H        -17.87850       18.15470        9.48590
H        -19.60310       14.78960       11.35930
H        -18.97300       18.56430       11.94290
H        -21.25580       16.68200       12.05430
H        -23.25530       20.10200       15.10050
H        -23.32550       18.30590       13.18170
H        -22.31310       21.54450       16.75660
H        -18.33390       20.64090       15.64990
H        -18.88920       23.94760       19.35160
H        -22.87090       24.81240       20.45800
H        -20.69520       25.72690       22.07270
H        -18.43460       26.16600       20.22500
H        -16.91480       29.73290       23.08440
H        -18.02590       28.47200       25.04440
H        -19.29050       26.40440       23.99130
