314
630_1071_01010101.out	Energy:   -6919.5713872
C         -3.79520       -5.69440        2.17100
C         -3.61740       -4.38780        1.85840
C         -4.86990       -3.68390        2.06240
C         -5.82540       -4.70310        2.53270
C         -5.16470       -5.89700        2.59090
C         -7.17640       -4.49100        2.86460
N         -8.28680       -4.34130        3.13970
C         -5.12340       -2.35220        1.86640
C         -6.35980       -1.65640        2.06790
C         -6.19430       -0.32640        1.75960
C         -4.80450       -0.13470        1.34130
C         -4.15770       -1.32700        1.39950
C         -2.80380       -1.53900        1.07090
N         -1.69340       -1.67560        0.79210
C         -7.20380        0.68030        1.83720
C         -7.01460        1.98770        1.53200
C         -8.00980        3.03220        1.60280
C         -7.62420        4.34760        1.27150
C         -8.54850        5.36510        1.33620
C         -9.87650        5.10670        1.72820
C        -10.27150        3.81190        2.05370
C         -9.34100        2.79150        1.98920
C        -10.61960        6.35270        1.71250
C         -9.75130        7.38790        1.30800
C         -8.36380        6.83960        1.03490
C         -7.31010        7.47900        1.96480
C         -7.64980        7.30640        3.44390
C         -7.94420        7.06860       -0.43330
C         -8.93740        6.47110       -1.42820
C        -10.19210        8.69370        1.20320
C        -11.52880        8.94560        1.51470
C        -12.39530        7.91090        1.92060
C        -11.95490        6.60540        2.02730
C        -13.77440        8.46340        2.23760
C        -14.87900        7.76680        1.42060
C        -14.62030        7.84410       -0.08330
C        -14.00010        8.27740        3.75990
C        -15.23920        8.96380        4.32880
C        -13.61150        9.92400        1.85990
C        -12.28130       10.18560        1.47690
C        -11.89750       11.47130        1.10530
C        -12.84360       12.47920        1.10870
C        -14.18350       12.23000        1.45670
C        -14.55830       10.92400        1.82830
C        -15.15840       13.30000        1.43870
C        -14.92100       14.64700        1.29650
C        -16.16060       15.36120        1.35490
C        -17.20880       14.33610        1.53530
C        -16.59950       13.11980        1.58560
C        -18.59540       14.56150        1.63200
N        -19.73530       14.71620        1.71580
C        -16.35540       16.72160        1.27680
C        -17.58890       17.43530        1.36900
C        -17.34710       18.78790        1.25780
C        -15.90850       18.96940        1.08010
C        -15.30650       17.75000        1.09040
C        -13.92500       17.51720        0.94280
N        -12.78930       17.35690        0.82060
C        -18.33440       19.81660        1.31960
C        -18.07590       21.14390        1.21630
C        -19.04830       22.20930        1.29430
C        -18.59590       23.53960        1.17360
C        -19.49700       24.57620        1.25960
C        -20.86720       24.32330        1.46610
C        -21.32820       23.01450        1.58070
C        -20.42110       21.97480        1.49440
C        -21.57260       25.58960        1.52790
C        -20.63850       26.63240        1.35820
C        -19.24330       26.06840        1.16900
C        -18.28440       26.54750        2.28010
C        -18.79120       26.20610        3.68020
C        -18.65780       26.46020       -0.20490
C        -19.55060       26.03090       -1.36760
C        -21.03040       27.95780        1.37970
C        -22.38600       28.22220        1.57850
C        -23.31970       27.17830        1.74810
C        -22.92830       25.85330        1.72420
C        -24.71340       27.73900        1.95100
C        -25.67960       27.27390        0.84030
C        -25.18320       27.63450       -0.55850
C        -25.29200       27.33220        3.32360
C        -24.39480       27.75090        4.48670
C        -24.45910       29.23100        1.87690
C        -23.09130       29.48830        1.65760
C        -22.63790       30.80020        1.55820
C        -23.54890       31.83500        1.68030
C        -24.91680       31.59430        1.90140
C        -25.36270       30.26030        1.99720
C        -25.86060       32.68270        2.03710
C        -27.21120       32.58320        2.27860
C        -27.78360       33.89160        2.35850
C        -26.66770       34.83390        2.13760
C        -25.53450       34.10300        1.94820
C        -26.75220       36.23930        2.11900
N        -26.79320       37.39200        2.10010
C        -29.09880       34.21820        2.60230
C        -29.67470       35.52000        2.71250
C        -31.02340       35.40490        2.97600
C        -31.34530       33.98150        3.03540
C        -30.21080       33.26410        2.81680
C        -30.12440       31.85810        2.79740
N        -30.08620       30.70520        2.79000
C        -31.93210       36.48860        3.16760
C        -33.25750       36.34880        3.41910
C        -34.19970       37.42220        3.63410
C        -33.81650       38.77830        3.64520
C        -34.76680       39.74700        3.87050
C        -36.11710       39.40590        4.08580
C        -36.50990       38.07040        4.07320
C        -35.55220       37.09770        3.85050
C        -36.87730       40.62310        4.30290
C        -35.99540       41.72120        4.22730
C        -34.58390       41.25040        3.93660
C        -33.60770       41.65320        5.06270
C        -34.04600       41.13760        6.43210
C        -34.06580       41.81570        2.59620
C        -34.97640       41.46800        1.42020
C        -36.44330       43.01600        4.40870
C        -37.80280       43.19310        4.66620
C        -38.68700       42.09640        4.73310
C        -38.23820       40.80120        4.55480
C        -40.09950       42.57070        5.01580
C        -41.06390       42.18980        3.87170
C        -40.60560       42.72220        2.51550
C        -40.63810       41.98850        6.34060
C        -39.74090       42.31260        7.53350
C        -39.90990       44.07220        5.10660
C        -38.55760       44.41000        4.90260
C        -38.15270       45.74010        4.95690
C        -39.09850       46.71600        5.21790
C        -40.45210       46.39480        5.41560
C        -40.85110       45.04540        5.35370
C        -41.43040       47.43020        5.67750
C        -42.79550       47.33740        5.55240
C        -43.39440       48.58830        5.91160
C        -42.27640       49.47630        6.29140
C        -41.11710       48.77860        6.13640
C        -42.37780       50.80880        6.73460
N        -42.43170       51.90140        7.10080
C        -44.73000       48.91990        5.89440
C        -45.32790       50.16610        6.25380
C        -46.69170       50.09270        6.06780
C        -47.00200       48.75310        5.57440
C        -45.84680       48.04240        5.47410
C        -45.74140       46.70570        5.04230
N        -45.68320       45.60960        4.68740
C        -47.62460       51.14370        6.31840
C        -48.95060       51.08380        6.04110
C        -49.91130       52.13770        6.27400
C        -49.60180       53.29310        7.01920
C        -50.56550       54.25820        7.20040
C        -51.84890       54.11760        6.63870
C        -52.16900       52.98020        5.90280
C        -51.20430       52.00330        5.73500
C        -52.64720       55.27200        7.00760
C        -51.86070       56.12860        7.80440
C        -50.45120       55.58120        7.93880
C        -50.03930       55.38870        9.41080
C        -50.99090       54.45680       10.15940
C        -49.41320       56.44120        7.17370
C        -49.30040       57.89480        7.62560
C        -52.40150       57.27920        8.35030
C        -53.73270       57.56970        8.05620
C        -54.51680       56.71860        7.25220
C        -53.97880       55.56480        6.71140
C        -55.91950       57.27980        7.09980
C        -56.30730       57.47840        5.62200
C        -55.33220       58.39820        4.88840
C        -56.97730       56.42900        7.84760
C        -57.09560       54.97620        7.39360
C        -55.80320       58.60020        7.84180
C        -54.53230       58.72850        8.42640
C        -54.21220       59.84650        9.18690
C        -55.17560       60.83350        9.35320
C        -56.43200       60.70710        8.77170
C        -56.75810       59.58540        8.01300
H         -3.05510       -6.47910        2.12430
H         -2.70840       -3.92400        1.51280
H         -5.58130       -6.84440        2.89780
H         -7.27370       -2.11480        2.40870
H         -4.37270        0.80670        1.03740
H         -8.17700        0.33170        2.17070
H         -6.03040        2.31270        1.20410
H         -6.60000        4.54280        0.97100
H        -11.29190        3.60210        2.35440
H         -9.65280        1.78500        2.24340
H         -7.23600        8.54550        1.72990
H         -6.33670        7.02300        1.75820
H         -8.60850        7.77210        3.67480
H         -6.87950        7.77470        4.05660
H         -7.70630        6.24900        3.70460
H         -6.95720        6.62220       -0.59010
H         -7.85570        8.14530       -0.60880
H         -9.02460        5.39360       -1.28440
H         -8.59780        6.65940       -2.44670
H         -9.92380        6.91880       -1.30220
H         -9.53070        9.49450        0.89220
H        -12.61530        5.80460        2.34040
H        -15.84260        8.23430        1.64310
H        -14.93820        6.71770        1.72730
H        -14.57880        8.88310       -0.41220
H        -15.42230        7.34040       -0.62300
H        -13.67500        7.36260       -0.33600
H        -13.11590        8.65800        4.28140
H        -14.06130        7.20260        3.95910
H        -15.14890       10.04770        4.26070
H        -15.34260        8.69720        5.38120
H        -16.14420        8.65210        3.80760
H        -10.87550       11.68170        0.81070
H        -12.54740       13.47930        0.81460
H        -15.58900       10.71290        2.08460
H        -13.95980       15.11930        1.18130
H        -17.10130       12.17130        1.69990
H        -18.55550       16.98020        1.51050
H        -15.41210       19.92050        0.96120
H        -19.35280       19.46850        1.46660
H        -17.04930       21.46850        1.06690
H        -17.53930       23.73080        1.01710
H        -22.38110       22.80890        1.73780
H        -20.78430       20.95770        1.58690
H        -18.15880       27.63120        2.19220
H        -17.30530       26.08390        2.12330
H        -19.75730       26.67720        3.86440
H        -18.08210       26.56370        4.42690
H        -18.90360       25.12760        3.79590
H        -17.67170       25.99710       -0.31160
H        -18.52190       27.54590       -0.23150
H        -19.68350       24.94850       -1.37110
H        -19.09510       26.32820       -2.31220
H        -20.53200       26.50050       -1.29200
H        -20.31730       28.76430        1.25050
H        -23.64100       25.04680        1.85460
H        -26.65740       27.73510        1.01050
H        -25.80400       26.18910        0.91490
H        -25.07170       28.71450       -0.66020
H        -25.89820       27.28740       -1.30450
H        -24.21850       27.16600       -0.75690
H        -25.42660       26.24610        3.33960
H        -26.27780       27.79310        3.43910
H        -23.41190       27.28590        4.40120
H        -24.84490       27.44100        5.42990
H        -24.26590       28.83360        4.50230
H        -21.58850       31.01460        1.38940
H        -23.19070       32.85510        1.60440
H        -26.41200       30.04890        2.16570
H        -27.77540       31.67410        2.40100
H        -24.55180       34.50730        1.76060
H        -29.13120       36.44500        2.60950
H        -32.32640       33.57330        3.22470
H        -31.49010       37.47880        3.10160
H        -33.67940       35.34840        3.47090
H        -32.78130       39.05670        3.48360
H        -37.54520       37.79340        4.23750
H        -35.84650       36.05330        3.84180
H        -33.53510       42.74490        5.09050
H        -32.61490       41.25840        4.82490
H        -35.02540       41.53720        6.69770
H        -33.32690       41.44710        7.19060
H        -34.10420       40.04860        6.43220
H        -33.06320       41.41740        2.41150
H        -33.98250       42.90360        2.68330
H        -35.05770       40.38680        1.30350
H        -34.56760       41.88690        0.50070
H        -35.97590       41.87630        1.57410
H        -35.76990       43.86400        4.35480
H        -38.91150       39.95310        4.60830
H        -42.05680       42.58750        4.10310
H        -41.14230       41.09900        3.82770
H        -40.54160       43.81070        2.53180
H        -41.31730       42.42760        1.74420
H        -39.62530       42.32080        2.25590
H        -40.72700       40.90260        6.23590
H        -41.64050       42.39020        6.51840
H        -38.74100       41.90320        7.38510
H        -40.16250       41.87960        8.44070
H        -39.65720       43.39130        7.66970
H        -37.11510       46.01250        4.79940
H        -38.78670       47.75370        5.25100
H        -41.88920       44.78110        5.51980
H        -43.34870       46.47690        5.21470
H        -40.12490       49.14940        6.34310
H        -44.78860       51.02830        6.61040
H        -47.99140       48.39180        5.33880
H        -47.19830       52.04710        6.74560
H        -49.35150       50.18620        5.57710
H        -48.61830       53.41190        7.45940
H        -53.15560       52.85650        5.47050
H        -51.44260       51.11130        5.16480
H        -50.02390       56.36150        9.91090
H        -49.02470       54.97930        9.44530
H        -52.00580       54.85590       10.14790
H        -50.66930       54.35410       11.19590
H        -51.00220       53.46810        9.69920
H        -49.67660       56.42240        6.11110
H        -48.43700       55.95640        7.27830
H        -50.21850       58.44120        7.41080
H        -48.48510       58.37440        7.08270
H        -49.08870       57.96710        8.69230
H        -51.82450       57.93640        8.98990
H        -54.55460       54.90820        6.06990
H        -57.31530       57.90250        5.57380
H        -56.32950       56.50670        5.11980
H        -55.30990       59.38410        5.35400
H        -55.64020       58.51130        3.84890
H        -54.32400       57.98260        4.90920
H        -57.94740       56.92220        7.72720
H        -56.73120       56.44500        8.91430
H        -57.28930       54.90550        6.32330
H        -57.92450       54.50370        7.92210
H        -56.18640       54.42150        7.62440
H        -53.23320       59.95020        9.64120
H        -54.94510       61.71440        9.94220
H        -57.16820       61.49100        8.91080
H        -57.74260       59.49730        7.56650
