190
630_904_01010101.out	Energy:   -4428.6923553
C          0.34670       -4.82030       -0.63050
C          1.04500       -3.69150       -0.85440
C          0.37990       -2.94750       -1.93620
C         -0.77560       -3.78110       -2.32060
C         -0.77250       -4.87640       -1.54060
C         -1.72510       -3.56040       -3.34380
N         -2.51020       -3.38900       -4.18130
C          0.77110       -1.75190       -2.43280
C          0.05770       -0.97400       -3.45680
C          0.75700        0.15610       -3.70250
C          1.93980        0.15510       -2.85360
C          1.95620       -0.95490       -2.09300
C          2.99560       -1.25500       -1.17710
N          3.85900       -1.50340       -0.45080
C          0.37070        1.16640       -4.65640
C         -0.61160        2.06550       -4.46820
C         -0.94780        3.07510       -5.42350
N          0.00110        3.84460       -6.07470
C          1.41590        3.94510       -5.74520
C          2.22970        4.99000       -6.49030
N         -0.53040        4.64590       -7.02490
C         -1.85630        4.49510       -6.90730
C         -2.17280        3.60020       -5.83100
C         -3.52540        3.24890       -5.29520
C         -4.16370        4.37760       -4.49060
C         -2.77490        5.24270       -7.86470
C         -3.20630        6.60760       -7.31990
C         -3.90410        7.64070       -8.16770
C         -4.12060        7.85410       -9.48910
C         -4.64180        9.23700       -9.63420
C         -4.78140        9.76070       -8.26440
C         -4.41380        8.78850       -7.42560
C         -5.33690       10.98600       -7.82510
N         -5.76190       12.00610       -7.46940
C         -4.92980        9.92740      -10.75930
C         -5.08350       11.37900      -10.78580
C         -5.39900       11.77710      -12.02980
C         -5.49780       10.58210      -12.85790
C         -5.14690        9.49370      -12.13920
C         -5.16080        8.17180      -12.63700
N         -5.17380        7.09400      -13.06690
C         -5.54480       13.18000      -12.31880
C         -5.49700       13.73930      -13.53280
C         -5.57020       15.14640      -13.64470
N         -6.78340       15.76080      -13.68180
C         -8.08860       15.22830      -13.36300
C         -8.71120       14.41950      -14.47840
N         -6.70180       17.05850      -13.97960
C         -5.40670       17.36030      -13.91340
C         -4.63140       16.16850      -13.72740
C         -3.15100       15.99820      -13.66420
C         -2.52080       16.63460      -12.43640
C         -4.99510       18.79420      -14.11550
C         -5.88040       19.87120      -13.42830
C         -7.27180       20.09170      -13.96720
C         -8.38550       19.36580      -13.72330
C         -9.48290       19.89940      -14.52520
C         -8.95570       21.14480      -15.11250
C         -7.65130       21.23040      -14.78930
C         -9.65580       22.15020      -15.82340
N        -10.23340       22.97700      -16.39510
C        -10.66860       19.28400      -14.72770
C        -11.71470       19.75940      -15.62710
C        -12.69070       18.83100      -15.68220
C        -12.29710       17.70050      -14.87900
C        -11.16890       17.99970      -14.21840
C        -10.84870       17.26620      -13.06260
N        -10.73910       16.60000      -12.11650
C        -13.90670       18.91400      -16.42940
C        -14.37220       20.05130      -16.95010
C        -15.41200       20.07870      -17.89960
N        -15.41790       19.27720      -19.01760
C        -14.53610       18.18880      -19.40820
C        -13.68320       18.47610      -20.62890
N        -16.42500       19.58120      -19.85000
C        -17.05470       20.62020      -19.28480
C        -16.48210       20.95350      -18.01970
C        -16.86820       21.96340      -16.97650
C        -16.09260       23.26490      -17.04110
C        -18.14850       21.23950      -20.09640
C        -19.36880       21.79090      -19.37290
C        -20.21180       20.79380      -18.64130
C        -21.50800       20.49840      -18.87230
C        -21.98220       19.68830      -17.74520
C        -20.81980       19.45290      -16.89010
C        -19.77920       20.09300      -17.44780
C        -20.69740       18.60980      -15.76010
N        -20.59870       17.93680      -14.82530
C        -23.26200       19.34910      -17.50710
C        -23.76700       18.91750      -16.20560
C        -25.11010       18.89160      -16.26350
C        -25.50680       19.18320      -17.63980
C        -24.42510       19.46250      -18.38310
C        -24.45870       19.67940      -19.77930
N        -24.50490       19.85040      -20.92640
C        -26.01580       18.71320      -15.15980
C        -25.73200       18.58580      -13.85360
C        -26.76460       18.61830      -12.86630
N        -26.49550       18.26780      -11.55080
C        -25.22560       17.84950      -10.97000
C        -25.22080       17.67510       -9.45310
N        -27.57480       18.35010      -10.74990
C        -28.54800       18.80750      -11.53520
C        -28.10600       19.00310      -12.87050
C        -28.94700       19.54360      -13.98490
C        -29.61320       18.44400      -14.80220
C        -29.90320       19.06220      -10.96500
C        -30.07150       20.49930      -10.49490
H          0.57530       -5.53320        0.07980
H          1.89880       -3.39850       -0.35420
H         -1.46470       -5.64060       -1.58570
H         -0.82810       -1.24550       -3.91130
H          2.65850        0.89540       -2.83740
H          0.88630        1.20210       -5.54970
H         -1.15060        2.02470       -3.58910
H          1.86040        2.99160       -5.94030
H          1.43940        4.25560       -4.72150
H          2.25360        4.74720       -7.53210
H          3.22780        5.00620       -6.10480
H          1.78080        5.95230       -6.35850
H         -3.42840        2.39210       -4.66170
H         -4.16060        3.05740       -6.13470
H         -3.55390        4.59790       -3.63940
H         -5.13700        4.07650       -4.16390
H         -4.24760        5.25000       -5.10460
H         -3.64910        4.64950       -8.03460
H         -2.23130        5.41180       -8.77070
H         -2.31570        7.07590       -6.95600
H         -3.97960        6.33240       -6.63340
H         -3.95400        7.18020      -10.25270
H         -4.48080        8.84180       -6.39720
H         -4.96750       12.00420       -9.97300
H         -5.79230       10.56930      -13.84690
H         -5.70030       13.81080      -11.51700
H         -5.40790       13.15150      -14.37630
H         -8.73990       16.04660      -13.13670
H         -7.95840       14.56430      -12.53420
H         -8.86070       15.04610      -15.33280
H         -9.65300       14.02930      -14.15320
H         -8.06070       13.61080      -14.73850
H         -2.72090       16.44510      -14.53610
H         -2.95650       14.94750      -13.60960
H         -2.69370       17.69040      -12.45340
H         -1.46760       16.44560      -12.43750
H         -2.95730       16.21590      -11.55380
H         -5.00230       18.98980      -15.16740
H         -4.03310       18.88120      -13.65500
H         -5.36010       20.80350      -13.49900
H         -6.03320       19.49930      -12.43670
H         -8.44980       18.56480      -13.07570
H         -7.01620       21.98970      -15.08100
H        -11.70840       20.65700      -16.13630
H        -12.80330       16.80300      -14.82130
H        -14.45270       18.05020      -16.57340
H        -13.95430       20.94440      -16.64560
H        -15.13840       17.32930      -19.61650
H        -13.85920       18.03860      -18.59320
H        -14.31610       18.63470      -21.47700
H        -13.03720       17.64400      -20.81660
H        -13.09440       19.35240      -20.45440
H        -16.70730       21.52640      -16.01310
H        -17.89290       22.21150      -17.15870
H        -15.05520       23.07110      -16.86440
H        -16.46180       23.93760      -16.29530
H        -16.21350       23.70450      -18.00910
H        -18.49690       20.49250      -20.77860
H        -17.69220       22.10280      -20.53410
H        -19.98940       22.27170      -20.10000
H        -18.98280       22.44570      -18.61990
H        -22.06390       20.78920      -19.69170
H        -18.81450       20.08710      -17.08120
H        -23.19210       18.67450      -15.38380
H        -26.47780       19.17540      -17.98920
H        -27.01760       18.67850      -15.40490
H        -24.75120       18.46220      -13.55750
H        -24.49080       18.58630      -11.21910
H        -25.02180       16.88120      -11.37700
H        -25.42030       18.61650       -8.98520
H        -24.26320       17.31620       -9.13840
H        -25.97550       16.97040       -9.17270
H        -28.32460       20.12360      -14.63380
H        -29.72230       20.13720      -13.54740
H        -28.86200       17.83070      -15.25440
H        -30.22050       18.88470      -15.56500
H        -30.22510       17.84420      -14.16130
H        -30.05460       18.40780      -10.13200
H        -30.62190       18.88440      -11.73750
H        -29.36350       20.70620       -9.71980
H        -31.06340       20.63750      -10.11800
H        -29.90610       21.16490      -11.31610
