162
630_730_01010101.out	Energy:   -7757.1169033
C        -15.66390       -1.74880      -36.34530
C        -15.89850       -0.43740      -36.09250
C        -14.94810        0.02370      -35.09970
C        -14.11290       -1.14550      -34.77580
C        -14.55630       -2.19540      -35.52970
C        -13.05040       -1.18150      -33.85390
N        -12.17570       -1.23460      -33.10330
C        -14.83880        1.28360      -34.56610
C        -13.89570        1.74450      -33.59570
C        -14.12180        3.08030      -33.33240
C        -15.25340        3.50940      -34.15380
C        -15.68780        2.45490      -34.89100
C        -16.76300        2.48670      -35.80190
N        -17.64900        2.55090      -36.53710
C        -13.38070        3.89320      -32.43390
C        -13.61800        5.21660      -32.20400
C        -12.86270        6.02910      -31.32340
S        -11.51300        5.39670      -30.40490
C        -11.22920        6.93790      -29.72190
C        -12.14610        7.90790      -30.18400
C        -13.06770        7.38720      -31.08740
C        -11.85650        9.22120      -29.58190
S        -12.65110       10.62110      -29.82200
C        -10.69280        8.95450      -28.73150
C        -10.34970        7.59410      -28.83330
O         -9.28900        7.30740      -28.07840
C         -8.91050        8.47980      -27.46890
C         -9.76590        9.52070      -27.85520
C         -7.78400        8.44760      -26.61460
C         -7.27550        9.55220      -25.99190
C         -6.13730        9.55610      -25.14580
C         -5.34440        8.49380      -24.73260
C         -4.30350        8.98260      -23.90270
C         -4.49410       10.44660      -23.81720
C         -5.59100       10.77040      -24.55560
C         -3.69760       11.35620      -23.09500
N         -3.06520       12.12670      -22.51430
C         -3.29860        8.25770      -23.27810
C         -2.24340        8.75420      -22.47370
C         -1.46780        7.69430      -22.02180
C         -2.04320        6.46730      -22.55880
C         -3.13000        6.78850      -23.31340
C         -3.95310        5.87110      -23.99560
N         -4.60740        5.09920      -24.54940
C         -0.33490        7.80830      -21.18060
C          0.37960        6.75620      -20.67640
C          1.48940        6.89330      -19.80880
S          2.23350        5.46130      -19.13040
C          3.34360        6.42050      -18.25300
C          3.15440        7.80240      -18.48840
C          2.10820        8.06380      -19.36350
C          4.12110        8.59640      -17.70760
S          4.27710       10.21620      -17.67510
C          4.88390        7.58020      -16.98000
C          4.40070        6.30430      -17.32770
O          5.05220        5.34480      -16.66700
C          5.97330        5.97830      -15.86570
C          5.89540        7.36550      -16.04230
C          6.79190        5.22090      -14.99880
C          6.74770        3.85690      -14.90970
C          7.50850        3.08440      -13.99930
C          7.48510        1.69980      -13.88360
C          8.33370        1.30210      -12.82090
C          8.91290        2.54540      -12.27000
C          8.42150        3.59510      -12.98510
C          9.82810        2.64280      -11.20380
N         10.57820        2.75500      -10.33450
C          8.57850        0.01680      -12.35650
C          9.35200       -0.36360      -11.23320
C          9.33290       -1.74750      -11.10900
C          8.52790       -2.27600      -12.20260
C          8.06190       -1.23680      -12.94830
C          7.24680       -1.34570      -14.09150
N          6.58250       -1.46440      -15.02710
C          9.94200       -2.56110      -10.12180
C         10.61690       -2.07520       -9.03460
C         11.21590       -2.87680       -8.03550
S         11.94350       -2.10420       -6.64320
C         12.37370       -3.62390       -5.99120
C         11.97660       -4.69420       -6.82670
C         11.32130       -4.26860       -7.97490
C         12.37440       -5.98520       -6.23450
S         12.12840       -7.47310       -6.84680
C         13.03090       -5.59700       -4.98420
C         13.00880       -4.19410       -4.86970
O         13.58700       -3.79250       -3.73610
C         14.00450       -4.93080       -3.08570
C         13.67520       -6.06550       -3.83730
C         14.65110       -4.82390       -1.83420
C         14.85280       -3.63680       -1.18650
C         15.49420       -3.50690        0.07110
C         16.08990       -4.48990        0.84980
C         16.60510       -3.90280        2.03360
C         16.28400       -2.46190        1.95360
C         15.63090       -2.24150        0.77920
C         16.59810       -1.48140        2.91460
N         16.83890       -0.65800        3.68570
C         17.28830       -4.53200        3.06360
C         17.79400       -3.95580        4.25580
C         18.42590       -4.93420        5.01040
C         18.32440       -6.19050        4.27690
C         17.64580       -5.96700        3.11830
C         17.35030       -6.94160        2.14530
N         17.11920       -7.76230        1.36810
C         19.05260       -4.73740        6.26660
C         19.69560       -5.71290        6.97540
C         20.32170       -5.51570        8.23140
S         21.15140       -6.85890        8.98810
C         21.58000       -5.87830       10.31720
C         21.09760       -4.56050       10.18710
C         20.38830       -4.35850        9.00680
C         21.48910       -3.75020       11.35940
S         21.14600       -2.18320       11.63540
C         22.24220       -4.69260       12.18650
C         22.28100       -5.93760       11.54860
O         22.96530       -6.83040       12.26600
C         23.38870       -6.17540       13.39590
C         22.96260       -4.85620       13.38450
C         24.16770       -6.89570       14.36670
C         24.52110       -8.17680       14.23710
H        -16.19980       -2.38160      -37.03680
H        -16.65690        0.18110      -36.54310
H        -14.15680       -3.19810      -35.52810
H        -13.12650        1.13740      -33.14710
H        -15.66880        4.50560      -34.16540
H        -12.56350        3.40850      -31.90580
H        -14.42990        5.72010      -32.72090
H        -13.85260        7.95800      -31.56240
H         -9.70120       10.54460      -27.52790
H         -7.31860        7.47640      -26.48380
H         -7.75630       10.51350      -26.15470
H         -5.48640        7.45860      -24.99610
H         -6.00380       11.75760      -24.69850
H         -2.07010        9.79280      -22.24430
H         -1.66120        5.47290      -22.38530
H         -0.04420        8.82070      -20.91310
H          0.08330        5.74120      -20.92170
H          1.80490        9.05550      -19.66600
H          6.50460        8.09440      -15.53490
H          7.46660        5.79740      -14.37530
H          6.07160        3.31680      -15.56660
H          6.89770        1.03360      -14.49420
H          8.65970        4.63600      -12.82820
H          9.86420        0.32230      -10.57910
H          8.33880       -3.32570      -12.36940
H          9.83670       -3.63520      -10.24600
H         10.69620       -1.00110       -8.89780
H         10.94100       -4.93210       -8.73790
H         13.88730       -7.08330       -3.55630
H         14.97780       -5.75930       -1.39300
H         14.49220       -2.72480       -1.65380
H         16.16030       -5.53610        0.60200
H         15.26080       -1.29510        0.41490
H         17.70140       -2.91840        4.53300
H         18.72250       -7.13820        4.60610
H         19.00830       -3.72920        6.66920
H         19.75200       -6.71810        6.56910
H         19.93900       -3.41820        8.72240
H         23.15700       -4.12330       14.14940
H         24.46310       -6.31770       15.23670
H         24.23480       -8.76230       13.37420
H         25.11010       -8.68150       14.98900
