138
630_261_01010101.out	Energy:   -5254.4514589
C          5.51400       22.92010       19.31840
C          4.93120       22.52050       18.15750
C          3.56160       22.15080       18.42880
C          3.36580       22.36550       19.87100
C          4.54650       22.82570       20.38700
C          2.18060       22.13910       20.59390
N          1.21650       21.96010       21.20240
C          2.61930       21.68610       17.53270
C          1.27580       21.32310       17.80180
C          0.66100       20.89890       16.62130
C          1.65330       20.99650       15.55630
C          2.81730       21.46260       16.08140
C          4.00360       21.68880       15.35350
N          4.95490       21.86260       14.72580
C         -0.66760       20.46520       16.50460
C         -1.26330       20.04240       15.32900
C         -2.58610       19.61940       15.21340
C         -3.59440       19.52690       16.21400
C         -4.76720       19.07090       15.66060
C         -4.58470       18.83930       14.26480
C         -3.18760       19.18200       13.95870
S         -2.45890       19.08960       12.49360
C         -5.48720       18.39210       13.32190
C         -6.82700       18.08160       13.58850
C         -7.74530       17.64400       12.65290
C         -9.11750       17.35460       12.92790
C         -9.74470       16.95690       11.76610
C         -8.71940       16.98680       10.69520
C         -7.53910       17.39850       11.23720
C         -8.92460       16.64870        9.34320
N         -9.07000       16.37620        8.23180
C        -11.10840       16.59690       11.59040
C        -11.74930       16.20340       10.43460
C        -13.13140       15.96050       10.71680
C        -13.32160       16.22130       12.13280
C        -12.12770       16.59820       12.66710
C        -11.91660       16.93020       14.02020
N        -11.77680       17.19550       15.13400
C        -14.08630       15.56160        9.80340
C        -15.43950       15.36140       10.12090
C        -16.42250       14.96030        9.24680
C        -16.33560       14.63630        7.85150
C        -17.56540       14.27520        7.38990
C        -18.54200       14.34380        8.44670
C        -17.82420       14.78110        9.64780
S        -18.38650       15.03880       11.16720
C        -19.87410       14.03650        8.27370
C        -20.87300       14.11170        9.26140
C        -22.19590       13.77250        9.07640
C        -22.85070       13.25750        7.90960
C        -24.18260       13.05050        8.19150
C        -24.39740       13.45670        9.60210
C        -23.20820       13.87910       10.11140
C        -25.61570       13.41840       10.30840
N        -26.59780       13.40060       10.91320
C        -25.19660       12.53380        7.33580
C        -26.52460       12.32590        7.63090
C        -27.18600       11.76850        6.48880
C        -26.18540       11.64450        5.44480
C        -24.99640       12.09690        5.93260
C        -23.78200       12.13820        5.21960
N        -22.79790       12.16360        4.61840
C        -28.51860       11.41700        6.44700
C        -29.17390       10.83930        5.34670
C        -30.49740       10.46350        5.33870
C        -31.47920       10.57230        6.38100
C        -32.66580       10.04530        5.96060
C        -32.53820        9.55750        4.61680
C        -31.16180        9.82710        4.19720
S        -30.49290        9.48020        2.74290
C        -33.47480        8.92870        3.82490
C        -34.78500        8.63150        4.22420
C        -35.72150        7.96810        3.45310
C        -37.04260        7.63510        3.87520
C        -37.69140        6.95070        2.86300
C        -36.73460        6.85350        1.73530
C        -35.57130        7.46050        2.10060
C        -36.97810        6.24020        0.49020
N        -37.15170        5.74310       -0.53600
C        -39.00320        6.41790        2.87480
C        -39.65050        5.70750        1.87690
C        -40.94960        5.34340        2.32330
C        -41.10050        5.87010        3.66820
C        -39.95020        6.51390        4.01170
C        -39.71590        7.15840        5.24180
N        -39.55140        7.67620        6.25950
C        -41.88020        4.60950        1.59550
C        -43.13860        4.24680        2.06590
C        -44.07650        3.50360        1.35930
C        -44.02290        2.95780        0.06570
C        -45.21840        2.28010       -0.20450
C        -46.07630        2.36410        0.89410
C        -45.39710        3.13600        1.91990
S        -45.96180        3.53050        3.40590
C        -47.39110        1.82170        1.06500
C        -48.05830        1.09940        0.15460
H          6.53110       23.25740       19.44960
H          5.39440       22.47880       17.18570
H          4.73800       23.07990       21.41840
H          0.79960       21.36620       18.76790
H          1.48070       20.73900       14.52260
H         -1.25900       20.46860       17.41630
H         -0.68150       20.02990       14.40960
H         -3.45610       19.77980       17.25530
H         -5.68970       18.91030       16.19920
H         -5.11320       18.28780       12.30540
H         -7.18200       18.19960       14.60900
H         -9.56640       17.44730       13.90320
H         -6.60490       17.52200       10.71210
H        -11.30590       16.09360        9.45830
H        -14.25420       16.12660       12.66640
H        -13.76810       15.39980        8.77700
H        -15.76150       15.53780       11.14570
H        -15.42680       14.67440        7.26880
H        -17.80310       13.97800        6.37840
H        -20.17280       13.71280        7.27900
H        -20.57930       14.46560       10.24630
H        -22.36160       13.06260        6.96940
H        -23.02360       14.23920       11.11160
H        -27.01860       12.53250        8.56600
H        -26.36310       11.25860        4.45320
H        -29.10200       11.59190        7.34730
H        -28.61010       10.65560        4.43450
H        -31.29680       11.00800        7.35250
H        -33.57210        9.99740        6.54670
H        -33.14870        8.63860        2.82830
H        -35.09260        8.93080        5.22280
H        -37.44580        7.88240        4.84360
H        -34.68370        7.55420        1.49460
H        -39.24920        5.45330        0.90950
H        -41.97930        5.76630        4.28510
H        -41.59240        4.29730        0.59500
H        -43.43600        4.55210        3.06730
H        -43.19350        3.04240       -0.62090
H        -45.43440        1.76980       -1.13230
H        -47.84910        2.03650        2.02880
H        -47.64490        0.85960       -0.81580
H        -49.05060        0.72080        0.35410
