146
630_1172_01010101.out	Energy:   -7432.4310214
C         -0.15010       -2.13980       -2.21070
C         -1.10800       -1.70320       -3.07190
C         -1.35000       -0.30220       -2.82490
C         -0.44550        0.07540       -1.72970
C          0.26630       -1.03920       -1.37470
C         -0.32690        1.35050       -1.14790
N         -0.21340        2.39000       -0.66000
C         -2.24850        0.52620       -3.47250
C         -2.49910        1.89630       -3.21950
C         -3.49630        2.35810       -4.08570
C         -3.88830        1.23490       -4.92910
C         -3.15740        0.14350       -4.57670
C         -3.26250       -1.12730       -5.17810
N         -3.38150       -2.15040       -5.69650
C         -4.01110        3.66100       -4.11040
C         -5.02720        4.08260       -4.95530
C         -5.59800        5.35770       -5.00640
C         -5.19490        6.46530       -4.19040
C         -5.94830        7.69790       -4.12800
N         -5.41500        8.57120       -3.30040
S         -4.05220        7.93810       -2.64450
N         -4.13110        6.48660       -3.41060
C         -7.18830        7.87920       -4.83600
C         -7.43430        6.88360       -5.85290
C         -8.33260        6.97130       -6.89160
S         -8.31040        5.60240       -7.91050
C         -7.07960        4.87220       -6.98170
C         -6.67220        5.65280       -5.92340
C         -8.08940        8.89010       -4.50520
C         -7.83280       10.04950       -3.71000
C         -8.99040       10.78830       -3.57870
C        -10.05480       10.04640       -4.28570
C         -9.50160        8.93070       -4.84210
C        -11.41330       10.40620       -4.37250
N        -12.53130       10.67550       -4.46490
C         -9.16800       12.02010       -2.89070
C        -10.33850       12.71870       -2.68620
C        -10.06000       13.90550       -1.93570
C         -8.63040       13.91450       -1.68480
C         -8.08640       12.79640       -2.24210
C         -6.71850       12.45910       -2.20600
N         -5.59140       12.21870       -2.15630
C        -11.00240       14.82790       -1.52960
C        -10.70340       16.00530       -0.82190
C        -11.60740       16.94250       -0.36050
C        -13.04000       16.83460       -0.48410
C        -13.92870       17.93320       -0.18700
N        -15.19140       17.62480       -0.38220
S        -15.30140       16.06500       -0.88240
N        -13.68340       15.75710       -0.87610
C        -13.44300       19.23740        0.19450
C        -12.05360       19.24910        0.59840
C        -11.41970       20.22510        1.33080
S         -9.78230       19.86230        1.65150
C         -9.90520       18.37370        0.82160
C        -11.16280       18.14270        0.32170
C        -14.23660       20.37470        0.11590
C        -15.66300       20.42810       -0.01890
C        -16.07330       21.74010       -0.08450
C        -14.85400       22.57460       -0.04340
C        -13.77520       21.75180        0.09210
C        -14.79470       23.97850       -0.13630
N        -14.71300       25.12710       -0.20730
C        -17.40460       22.23840       -0.18040
C        -17.81300       23.54240       -0.34270
C        -19.24490       23.59150       -0.38590
C        -19.71360       22.22690       -0.23460
C        -18.62980       21.40870       -0.11670
C        -18.68540       20.01100        0.05360
N        -18.77070       18.86920        0.19370
C        -19.99130       24.73870       -0.55510
C        -21.39660       24.78180       -0.54940
C        -22.18580       25.89940       -0.74240
C        -21.68250       27.21490       -1.05010
C        -22.51810       28.39210       -1.01370
N        -21.85470       29.48810       -1.31280
S        -20.29090       29.10590       -1.64370
N        -20.44060       27.48710       -1.38440
C        -23.90390       28.34310       -0.61920
C        -24.46500       27.00970       -0.60230
C        -25.79990       26.67260       -0.59520
S        -26.06390       24.98780       -0.61010
C        -24.38440       24.67890       -0.63940
C        -23.63090       25.82680       -0.65340
C        -24.61000       29.47980       -0.23500
C        -25.84750       29.52110        0.47630
C        -26.22270       30.83610        0.68550
C        -25.17490       31.67930        0.07620
C        -24.21680       30.86320       -0.44610
C        -25.17550       33.08700        0.02650
N        -25.15960       34.23930       -0.02260
C        -27.37940       31.30410        1.35500
C        -27.68780       32.59910        1.74060
C        -28.94590       32.60650        2.39760
C        -29.43680       31.24150        2.39480
C        -28.51170       30.45110        1.77680
C        -28.63140       29.07180        1.52390
N        -28.73860       27.94430        1.30030
C        -29.56170       33.73770        2.93310
C        -30.78390       33.72620        3.59090
C        -31.45220       34.82730        4.14640
C        -30.96710       36.17200        4.10440
C        -31.70470       37.27310        4.69710
N        -31.08490       38.44660        4.55010
S        -29.69400       38.19750        3.73690
N        -29.83900       36.57440        3.54590
C        -32.92530       37.08360        5.34090
C        -33.43220       35.77670        5.40130
C        -34.62250       35.37300        5.99280
S        -34.87720       33.69990        5.85250
C        -33.41260       33.47920        5.00400
C        -32.71700       34.65370        4.81590
H          0.25110       -3.13990       -2.14180
H         -1.61620       -2.28940       -3.81960
H          1.01640       -1.09940       -0.60090
H         -2.00490        2.49380       -2.47070
H         -4.63650        1.27100       -5.70620
H         -3.58100        4.36560       -3.40640
H         -5.44860        3.34190       -5.62910
H         -8.96850        7.80260       -7.14170
H         -6.68630        3.91580       -7.28260
H         -6.86670       10.31610       -3.31740
H        -10.04620        8.15650       -5.35810
H        -11.32360       12.43640       -3.02030
H         -8.09440       14.67820       -1.14280
H        -12.03800       14.62620       -1.78370
H         -9.65150       16.21290       -0.64740
H        -11.85200       21.11780        1.74840
H         -9.04840       17.72280        0.77320
H        -16.30500       19.56410       -0.01750
H        -12.74450       22.06760        0.07870
H        -17.18040       24.41040       -0.43240
H        -20.74710       21.91730       -0.22260
H        -19.44730       25.66810       -0.68930
H        -21.91070       23.84870       -0.33680
H        -26.65050       27.33110       -0.63360
H        -24.03290       23.66150       -0.67860
H        -26.34710       28.66460        0.89350
H        -23.33420       31.18030       -0.97680
H        -27.07210       33.47190        1.59400
H        -30.37990       30.91320        2.80360
H        -29.03230       34.67790        2.82000
H        -31.27920       32.76460        3.69180
H        -33.46150       37.91620        5.77760
H        -35.33750       36.00270        6.49500
H        -33.13670       32.48820        4.68500
