122
630_694_01010101.out	Energy:   -3801.5513256
C          2.16960        5.36680        8.43070
C          1.78060        6.60670        8.05500
C          0.79880        6.48630        6.98890
C          0.63540        5.03560        6.76400
C          1.46080        4.38540        7.63240
C         -0.22070        4.43000        5.82460
N         -0.91740        3.91450        5.06360
C          0.16030        7.49490        6.32600
C         -0.80450        7.37110        5.26190
C         -1.20030        8.61940        4.86530
C         -0.48900        9.60190        5.68220
C          0.32350        8.95070        6.55390
C          1.16800        9.55790        7.50450
N          1.85210       10.08350        8.26950
C         -2.13920        8.99290        3.83740
C         -2.80650        8.11750        3.07300
C         -3.76480        8.52150        1.99930
C         -3.51280        8.02260        0.57030
O         -3.30250        6.95790        0.09730
C         -3.73090        9.93800        1.43350
O         -3.74680       11.02110        1.91860
C         -3.60070        9.44260       -0.01840
C         -4.76520        9.71330       -0.90430
C         -6.07080        9.44960       -0.62580
C         -6.88050        9.88380       -1.74110
C         -5.93340       10.43330       -2.73440
C         -4.67690       10.32370       -2.22030
C         -6.26780       10.97250       -3.99210
N         -6.52030       11.41750       -5.02540
C         -8.24230        9.81920       -1.85310
C         -9.05880       10.28160       -2.94350
C        -10.37710       10.05240       -2.65040
C        -10.44540        9.41200       -1.33600
C         -9.18540        9.26750       -0.85110
C         -8.83520        8.69080        0.38660
N         -8.56190        8.21640        1.40130
C        -11.49450       10.39360       -3.48770
C        -12.78150       10.17670       -3.17460
C        -13.90500       10.55640       -4.07350
C        -15.06710       11.37690       -3.48710
O        -15.12280       12.41240       -2.91500
C        -14.95470        9.48810       -4.42600
O        -14.88600        8.40850       -4.90750
C        -16.12290       10.34140       -3.90470
C        -17.13400       10.77350       -4.90640
C        -18.48150       10.60330       -4.84930
C        -19.07070       11.17160       -6.04250
C        -17.94210       11.70460       -6.83360
C        -16.79470       11.45980       -6.14270
C        -18.02720       12.35110       -8.08280
N        -18.06830       12.88120       -9.10570
C        -20.39570       11.21600       -6.37870
C        -20.98270       11.78520       -7.56280
C        -22.34220       11.63060       -7.51330
C        -22.67580       10.93870       -6.26690
C        -21.52980       10.68570       -5.58400
C        -21.43800       10.03320       -4.33800
N        -21.38470        9.49720       -3.31870
C        -23.27280       12.07930       -8.51350
C        -24.60410       11.94100       -8.43450
C        -25.53830       12.42260       -9.49820
C        -26.57720       11.43780      -10.05140
O        -27.43890       10.79000       -9.55730
C        -25.02540       12.57810      -10.93100
O        -24.13980       13.19560      -11.42310
C        -26.08240       11.62140      -11.48870
C        -27.05700       12.17900      -12.47290
C        -26.83100       13.16090      -13.38380
C        -28.06050       13.40550      -14.10840
C        -29.05690       12.47540      -13.53570
C        -28.44330       11.75230      -12.55770
C        -30.40420       12.35410      -13.92880
N        -31.51130       12.24370      -14.23150
C        -28.26800       14.31230      -15.11070
C        -29.49300       14.57670      -15.81900
C        -29.28210       15.57680      -16.73050
C        -27.87940       15.98620      -16.63810
C        -27.26580       15.24390      -15.68160
C        -25.90980       15.34610      -15.30890
N        -24.79610       15.45270      -15.03210
C        -30.26810       16.13330      -17.61660
C        -30.03720       17.13520      -18.47930
C        -31.08770       17.70160      -19.36910
C        -30.71160       17.95480      -20.84110
O        -30.29430       17.25580      -21.70310
C        -31.33790       19.22130      -19.28080
O        -31.62720       19.94350      -18.38640
C        -31.03850       19.43970      -20.75700
H          2.88800        5.11550        9.19640
H          2.12540        7.54410        8.45910
H          1.58000        3.31650        7.72460
H         -1.14180        6.43040        4.85900
H         -0.60850       10.67070        5.58710
H         -2.29910       10.05880        3.70600
H         -2.67160        7.04530        3.17500
H         -4.78800        8.25040        2.28860
H         -2.66550        9.75990       -0.48730
H         -6.45800        9.00040        0.27340
H         -3.75600       10.63150       -2.69140
H         -8.67940       10.74260       -3.84070
H        -11.35540        9.10750       -0.84220
H        -11.24520       10.86500       -4.43500
H        -13.07010        9.70930       -2.23940
H        -13.53270       11.03180       -4.98800
H        -16.61120        9.88090       -3.04030
H        -19.03530       10.12780       -4.05710
H        -15.79230       11.72380       -6.44410
H        -20.42730       12.25800       -8.35600
H        -23.67440       10.67640       -5.95250
H        -22.83190       12.57310       -9.37480
H        -25.08730       11.45360       -7.59390
H        -26.04820       13.33560       -9.16750
H        -25.63190       10.69880      -11.87080
H        -25.90060       13.67750      -13.55250
H        -28.88620       10.99040      -11.93470
H        -30.42530       14.06600      -15.64240
H        -27.41720       16.75380      -17.23970
H        -31.26050       15.69430      -17.55440
H        -29.05970       17.59810      -18.56250
H        -32.02440       17.14140      -19.28360
H        -30.19810       20.10450      -20.95830
H        -31.88800       19.76260      -21.35890
