186
630_383_01010101.out	Energy:   -5256.5283753
C          2.18240       -2.24170      -15.04370
C          0.97180       -1.66880      -15.15520
C          0.17920       -2.01110      -13.96070
C          1.07480       -2.84510      -13.14200
C          2.24570       -2.96710      -13.79740
C          0.76630       -3.55460      -11.96130
N          0.52470       -4.15630      -10.99820
C         -1.09480       -1.61060      -13.73000
C         -1.90580       -1.77980      -12.51490
C         -3.07250       -1.11110      -12.68320
C         -3.10450       -0.57050      -14.03010
C         -1.96690       -0.88550      -14.65600
C         -1.80750       -0.74110      -16.06250
N         -1.67820       -0.66200      -17.21070
C         -4.15280       -1.04050      -11.72850
C         -4.70240        0.12100      -11.33110
C         -5.80970        0.23690      -10.35550
C         -6.77930       -0.78580      -10.29470
C         -7.80010       -0.66090       -9.37530
C         -7.89900        0.43460       -8.54550
C         -9.05550        0.23910       -7.68350
O         -9.42050        1.04730       -6.85240
N         -9.57930       -0.98100       -8.00720
C         -8.89390       -1.56940       -9.03730
O         -9.07710       -2.63840       -9.58770
C        -10.70720       -1.56680       -7.31090
C        -10.35210       -2.90110       -6.67580
C         -6.99050        1.46920       -8.57550
C         -5.93230        1.37770       -9.49320
C         -4.96950        2.48970       -9.49040
C         -5.17110        3.60090      -10.21690
C         -4.19440        4.65380      -10.31290
C         -3.59970        4.98770      -11.47730
C         -2.50000        5.91260      -11.18330
C         -2.60380        6.20650       -9.74730
C         -3.60810        5.46060       -9.25580
C         -1.85820        7.11210       -8.95600
N         -1.25330        7.82360       -8.26870
C         -1.52970        6.22550      -12.06680
C         -0.23080        6.79740      -11.72100
C          0.59130        6.62710      -12.77680
C         -0.19460        6.11720      -13.89420
C         -1.45650        5.89630      -13.49590
C         -2.50410        5.51520      -14.36590
N         -3.36660        5.19230      -15.07220
C          1.99040        6.95710      -12.75340
C          2.89790        6.28210      -13.47360
C          4.31640        6.63180      -13.43500
C          4.72670        7.64130      -14.31930
C          6.05660        7.99090      -14.30450
C          6.97030        7.36830      -13.47910
C          8.26830        7.99250      -13.72390
O          9.29710        7.64180      -13.17990
N          8.05800        8.98950      -14.64030
C          6.75700        9.02250      -15.05910
O          6.21900        9.73580      -15.88360
C          9.09510        9.85490      -15.16880
C          9.77860       10.67690      -14.08690
C          6.60340        6.36620      -12.59920
C          5.24850        5.99690      -12.55980
C          4.84880        4.95040      -11.60450
C          4.46480        5.21800      -10.34450
C          4.02480        4.19410       -9.42530
C          4.77730        3.16100       -8.98410
C          3.92690        2.27360       -8.17530
C          2.61920        2.94140       -8.10910
C          2.69470        4.05840       -8.85110
C          1.43900        2.52350       -7.45280
N          0.45910        2.17790       -6.93490
C          4.27520        1.06240       -7.68980
C          3.38140        0.13040       -7.00370
C          4.04320       -1.02710       -6.82890
C          5.40740       -0.86830       -7.27860
C          5.55020        0.34740       -7.83130
C          6.68410        0.69700       -8.57910
N          7.60630        0.94570       -9.25320
C          3.42410       -2.21690       -6.34600
C          3.49300       -3.39400       -6.98070
C          2.90690       -4.63740       -6.45730
C          2.44310       -5.54560       -7.42410
C          1.92580       -6.74440       -6.98240
C          1.84380       -7.07880       -5.65040
C          1.23160       -8.40640       -5.57130
O          1.04700       -9.00590       -4.52960
N          0.94860       -8.78320       -6.86020
C          1.39420       -7.85020       -7.75620
O          1.40590       -7.85510       -8.97140
C          0.38950      -10.07550       -7.22340
C         -0.45600      -10.03430       -8.48830
C          2.30280       -6.22540       -4.66990
C          2.85470       -4.99150       -5.07010
C          3.40100       -4.16220       -3.97910
C          2.65770       -3.28540       -3.28520
C          3.14880       -2.56050       -2.14010
C          2.53810       -2.65200       -0.94310
C          3.26320       -1.83670        0.03590
C          4.35510       -1.20960       -0.72350
C          4.28230       -1.65700       -1.99410
C          5.35680       -0.33730       -0.24410
N          6.18850        0.37860        0.14140
C          2.91620       -1.72940        1.33820
C          3.48120       -0.83510        2.35150
C          2.75730       -0.97070        3.48830
C          1.76910       -2.00310        3.28790
C          1.86570       -2.47900        2.04130
C          1.17490       -3.64530        1.62580
N          0.62340       -4.60280        1.30580
C          3.05540       -0.30770        4.72470
C          2.15840        0.17720        5.60700
C          2.52590        1.00850        6.78550
C          3.90260        1.32790        6.92890
C          4.32590        2.10890        7.97440
C          3.44140        2.62050        8.88370
C          4.21790        3.39230        9.84970
O          3.73310        3.99110       10.78150
N          5.53320        3.28260        9.48050
C          5.67500        2.52440        8.34760
O          6.67970        2.21310        7.73990
C          6.63230        3.90340       10.18600
C          6.90650        5.31010        9.67990
C          2.08750        2.35130        8.80130
C          1.59510        1.52930        7.74940
C          0.14450        1.22640        7.88370
C         -0.81260        1.04410        6.96440
H          2.94380       -2.17400      -15.73710
H          0.65100       -1.08690      -15.94480
H          3.06350       -3.49830      -13.45970
H         -1.63300       -2.31650      -11.67670
H         -3.88200       -0.02900      -14.43900
H         -4.51980       -1.92030      -11.33320
H         -4.32570        0.99290      -11.73480
H         -6.72640       -1.60470      -10.92050
H        -11.50400       -1.71730       -8.00900
H        -10.99890       -0.89580       -6.53020
H        -10.05610       -3.59140       -7.43800
H        -11.20430       -3.28700       -6.15660
H         -9.54580       -2.76440       -5.98590
H         -7.08430        2.28190       -7.94650
H         -4.11640        2.41390       -8.91470
H         -6.06220        3.70410      -10.72700
H         -3.87180        4.65020      -12.41380
H         -3.91760        5.46070       -8.27130
H          0.01440        7.25130      -10.82730
H          0.16530        5.95150      -14.84710
H          2.30740        7.74090      -12.16160
H          2.58770        5.49800      -14.06850
H          4.05740        8.10280      -14.95500
H          8.65490       10.52260      -15.87970
H          9.83830        9.23160      -15.62040
H          9.05960       11.31300      -13.61440
H         10.54940       11.27480      -14.52660
H         10.20780       10.02110      -13.35840
H          7.30040        5.90590      -11.99300
H          4.86430        3.96680      -11.91650
H          4.48500        6.19730      -10.01970
H          5.78020        3.01870       -9.18160
H          1.92000        4.72520       -8.99370
H          2.41290        0.32640       -6.70600
H          6.15300       -1.57620       -7.18940
H          2.89520       -2.16860       -5.46110
H          3.98460       -3.43090       -7.88740
H          2.48830       -5.32250       -8.43070
H         -0.22380      -10.41850       -6.41650
H          1.21170      -10.73310       -7.41420
H         -1.29230       -9.38420       -8.33730
H         -0.80640      -11.01950       -8.71530
H          0.13650       -9.67040       -9.30160
H          2.24420       -6.48230       -3.67210
H          4.39970       -4.26050       -3.73830
H          1.68460       -3.12190       -3.58720
H          1.69200       -3.20900       -0.74600
H          4.93380       -1.39750       -2.75120
H          4.29150       -0.20940        2.22160
H          1.09200       -2.32490        3.99720
H          4.05290       -0.19060        4.96200
H          1.16080       -0.04020        5.45650
H          4.58710        0.97110        6.24390
H          7.51130        3.30880       10.04930
H          6.36840        3.96820       11.22090
H          7.17320        5.27090        8.64440
H          7.71100        5.73990       10.23940
H          6.02850        5.90970        9.79970
H          1.43730        2.74470        9.49940
H         -0.18250        1.14150        8.85880
H         -0.58290        1.10930        5.96040
H         -1.77970        0.83860        7.26010
