234
630_588_01010101.out	Energy:   -8985.0879191
C        -18.68280       22.24970      -13.56970
C        -18.61800       23.38880      -12.83740
C        -18.80220       23.05550      -11.43790
C        -18.98520       21.59400      -11.39880
C        -18.91070       21.13080      -12.68190
C        -19.19750       20.81060      -10.24920
N        -19.37570       20.15010       -9.32020
C        -18.80590       23.91180      -10.36680
C        -18.98720       23.58650       -8.98490
C        -18.91980       24.73680       -8.22940
C        -18.68730       25.85640       -9.14240
C        -18.61730       25.38230      -10.41270
C        -18.40030       26.16560      -11.56410
N        -18.22420       26.83900      -12.48350
C        -19.04890       24.81940       -6.81460
C        -18.97390       25.96920       -6.09090
C        -19.09550       26.03490       -4.67570
C        -19.01550       27.17540       -3.90310
C        -19.16490       26.92110       -2.52580
C        -19.36360       25.55340       -2.25890
S        -19.36390       24.60780       -3.70610
C        -19.52290       25.10610       -0.94490
C        -19.48550       26.01890        0.12540
C        -19.28980       27.41590       -0.12460
C        -19.12820       27.86770       -1.45070
N        -18.93740       29.17230       -1.71360
C        -18.90650       30.00940       -0.69320
C        -18.72720       31.46120       -1.04860
C        -20.08970       32.12050       -1.29410
C        -19.07460       29.55780        0.63620
C        -19.04410       30.50070        1.81280
C        -19.26140       29.76730        3.13420
N        -19.25930       28.27930        0.90530
C        -19.64910       25.38200        1.37070
C        -19.80900       24.01540        1.26280
S        -19.76460       23.48290       -0.39900
C        -19.97420       23.10750        2.34390
C        -20.13570       21.76240        2.20810
C        -20.26770       20.85250        3.29270
C        -20.43630       19.48230        3.19580
C        -20.49240       18.92000        4.50200
C        -20.35190       20.05390        5.44090
C        -20.22500       21.19470        4.70980
C        -20.35840       19.98750        6.84800
N        -20.36480       19.97150        8.00140
C        -20.63580       17.59080        4.85510
C        -20.62940       17.03630        6.16400
C        -20.79340       15.66450        6.08450
C        -20.91950       15.31410        4.67390
C        -20.82100       16.45020        3.93060
C        -20.89550       16.52220        2.52580
N        -20.95910       16.55540        1.37460
C        -20.81560       14.77640        7.19200
C        -21.00740       13.42890        7.13230
C        -21.00580       12.58860        8.27860
C        -21.24110       11.22840        8.31150
C        -21.16910       10.68710        9.61010
C        -20.86530       11.66600       10.57420
S        -20.68180       13.23270        9.86950
C        -20.74510       11.32090       11.92130
C        -20.93610        9.99090       12.33900
C        -21.24810        8.97660       11.37480
C        -21.36390        9.32460       10.01100
N        -21.65640        8.39420        9.08760
C        -21.83240        7.14940        9.49500
C        -22.12000        6.15250        8.40350
C        -20.80790        5.59310        7.84040
C        -21.70240        6.79850       10.85660
C        -21.91830        5.40240       11.37800
C        -23.39630        5.18860       11.72630
N        -21.42230        7.70650       11.77520
C        -20.77940        9.84660       13.73180
C        -20.46810       11.03260       14.36690
S        -20.36800       12.36660       13.24390
C        -20.24230       11.22550       15.75680
C        -19.87560       12.42120       16.29730
C        -19.65050       12.67040       17.67860
C        -19.80750       11.82600       18.76470
C        -19.48480       12.53140       19.95680
C        -19.09160       13.89440       19.53690
C        -19.20120       13.96210       18.18230
C        -18.67570       14.94670       20.37550
N        -18.33290       15.82970       21.03410
C        -19.55260       12.07670       21.26210
C        -19.27290       12.80990       22.44620
C        -19.52250       12.01310       23.55050
C        -19.96430       10.71130       23.06440
C        -19.98260       10.73130       21.70330
C        -20.34950        9.65960       20.86690
N        -20.65210        8.76720       20.20130
C        -19.42290       12.35350       24.92840
C        -18.96800       13.55790       25.37700
C        -18.91700       13.95650       26.74070
C        -19.35980       13.28820       27.86570
C        -19.18950       14.03080       29.04940
C        -18.59440       15.28450       28.81140
S        -18.25860       15.52460       27.13500
C        -18.36470       16.17030       29.86690
C        -18.74660       15.83140       31.17830
C        -19.34450       14.55580       31.44540
C        -19.56230       13.65420       30.38160
N        -20.12190       12.45340       30.60270
C        -20.46040       12.14610       31.84290
C        -21.04480       10.77000       32.02520
C        -19.92670        9.74980       32.27120
C        -20.23120       13.04290       32.90900
C        -20.62280       12.75520       34.33450
C        -22.06270       13.21490       34.59270
N        -19.68880       14.23030       32.70200
C        -18.47190       16.86350       32.09660
C        -17.88030       17.96410       31.51040
S        -17.64910       17.74090       29.79510
C        -17.46850       19.18930       32.11000
C        -17.77970       19.56790       33.37990
C        -17.38520       20.80000       33.97320
C        -17.82840       21.29420       35.18690
C        -17.22440       22.55960       35.43120
C        -16.33600       22.81620       34.27800
C        -16.45320       21.77080       33.41310
C        -15.51640       23.94560       34.08720
N        -14.83080       24.85520       33.90430
C        -17.43980       23.41230       36.49860
C        -16.82460       24.66980       36.74660
C        -17.36020       25.22320       37.89620
C        -18.35680       24.29190       38.41320
C        -18.40660       23.20210       37.60020
C        -19.24680       22.08560       37.77490
N        -19.94820       21.18560       37.94410
C        -17.05750       26.46750       38.51570
C        -16.04590       27.29540       38.13280
C        -15.76090       28.54740       38.74100
C        -14.68880       29.36850       38.45940
C        -14.68220       30.55110       39.22700
C        -15.78420       30.62280       40.09720
S        -16.79760       29.22880       39.97210
C        -15.96110       31.73930       40.92250
C        -15.03610       32.79410       40.89860
C        -13.89560       32.73340       40.03560
C        -13.71830       31.61060       39.19760
N        -12.65610       31.52590       38.38050
C        -11.78410       32.51950       38.38680
C        -10.63380       32.36420       37.42630
C        -10.92950       33.08770       36.10750
C        -11.96390       33.64500       39.22020
C        -11.03160       34.82840       39.26160
C        -11.76000       36.08230       38.76690
N        -13.00670       33.74010       40.02790
C        -15.39430       33.83260       41.79130
C        -16.55650       33.57670       42.47160
S        -17.24960       32.03820       42.03730
C        -17.18620       34.43910       43.44060
C        -18.32690       34.16700       44.07590
H        -18.58400       22.16130      -14.64120
H        -18.45780       24.38720      -13.20940
H        -19.00400       20.10280      -12.99760
H        -19.15020       22.59190       -8.60330
H        -18.58800       26.88900       -8.84400
H        -19.21680       23.88110       -6.29190
H        -18.80710       26.91920       -6.59060
H        -18.85250       28.16620       -4.30310
H        -18.13340       31.52060       -1.96490
H        -18.19590       31.99510       -0.25670
H        -20.61800       31.59500       -2.08970
H        -19.95300       33.16090       -1.58810
H        -20.70050       32.08910       -0.39130
H        -19.81790       31.26510        1.68320
H        -18.07910       31.01980        1.83270
H        -20.22930       29.26590        3.13190
H        -19.22870       30.47300        3.96390
H        -18.48760       29.01320        3.27810
H        -19.64550       25.91700        2.30990
H        -19.95880       23.55600        3.33310
H        -20.15950       21.33410        1.20930
H        -20.50230       18.92280        2.27700
H        -20.10840       22.19150        5.10650
H        -20.50650       17.59750        7.07560
H        -21.06260       14.31440        4.29300
H        -20.66500       15.23310        8.16740
H        -21.17820       12.93790        6.17870
H        -21.46250       10.63230        7.43740
H        -22.65930        6.66730        7.60360
H        -22.74520        5.33470        8.76880
H        -20.19230        6.40730        7.45750
H        -21.01660        4.89640        7.02890
H        -20.24900        5.07010        8.61700
H        -21.31830        5.27970       12.28390
H        -21.59720        4.65490       10.64880
H        -23.71370        5.92570       12.46410
H        -23.54170        4.19070       12.13920
H        -24.01990        5.29500       10.83820
H        -20.88890        8.89960       14.24110
H        -20.37040       10.35280       16.39050
H        -19.73610       13.26790       15.62950
H        -20.13580       10.80030       18.72850
H        -18.99140       14.81940       17.56040
H        -18.93970       13.83400       22.46650
H        -20.22660        9.87930       23.70050
H        -19.74330       11.59940       25.64170
H        -18.62190       14.29360       24.65740
H        -19.80750       12.30460       27.85710
H        -21.57680       10.50030       31.10870
H        -21.75540       10.74840       32.85450
H        -19.22690        9.75840       31.43540
H        -20.34840        8.74960       32.36830
H        -19.38120        9.99070       33.18400
H        -19.94890       13.31090       34.99230
H        -20.52650       11.69120       34.56290
H        -22.15600       14.27970       34.37900
H        -22.32900       13.03940       35.63480
H        -22.76030       12.67000       33.95610
H        -18.69700       16.77760       33.15010
H        -16.89760       19.86000       31.47520
H        -18.39720       18.91880       33.99480
H        -18.53050       20.80540       35.84240
H        -15.93280       21.66330       32.47370
H        -16.06860       25.11540       36.12150
H        -18.94230       24.45850       39.30490
H        -17.68030       26.75720       39.35820
H        -15.38650       27.00470       37.31970
H        -13.92480       29.13670       37.73090
H        -10.50300       31.29730       37.22520
H         -9.70580       32.74720       37.85870
H        -11.84340       32.69310       35.66340
H        -10.10610       32.94020       35.40890
H        -11.05870       34.15720       36.27510
H        -10.13560       34.65770       38.66220
H        -10.72200       34.98600       40.29980
H        -12.04880       35.96690       37.72160
H        -11.11370       36.95480       38.85930
H        -12.66020       36.24140       39.36130
H        -14.80380       34.73010       41.91060
H        -16.66110       35.37060       43.63600
H        -18.87600       33.25070       43.90390
H        -18.75550       34.85320       44.79240
