202
630_768_01010101.out	Energy:   -5348.9952714
C        -44.49350        8.73120        5.96350
C        -43.35620        8.04230        6.25130
C        -42.28280        8.98420        6.46000
C        -42.87510       10.31540        6.27400
C        -44.20210       10.14300        5.97720
C        -42.21030       11.54920        6.38540
N        -41.68380       12.57260        6.47760
C        -40.96430        8.70670        6.76810
C        -39.90910        9.63610        6.95390
C        -38.73290        8.94870        7.24640
C        -39.04930        7.52630        7.25060
C        -40.37010        7.36550        6.96640
C        -41.03890        6.12820        6.88330
N        -41.54910        5.09540        6.82400
C        -37.44100        9.45950        7.48070
C        -37.13960       10.80250        7.54120
C        -35.88100       11.38280        7.77870
C        -35.75770       12.68190        8.33340
C        -34.44190       12.89980        8.69560
O        -33.91690       13.98380        9.27760
C        -34.75230       15.10180        9.53880
C        -33.63540       11.76760        8.31520
C        -34.55000       10.79750        7.72180
C        -34.19000        9.59980        7.12610
C        -34.86060        8.92340        6.05670
C        -34.13160        7.80870        5.73670
O        -34.43770        6.97470        4.73780
C        -33.60400        5.86310        4.45840
C        -32.99890        7.69610        6.65690
C        -33.01640        8.78010        7.46190
C        -32.24860       11.70720        8.27570
C        -31.35670       12.62540        8.83280
C        -29.97650       12.53050        8.71000
C        -29.03090       13.42070        9.29120
C        -27.75220       13.01580        8.95840
C        -27.89280       11.81320        8.10180
C        -29.22070       11.53550        7.96860
C        -26.85410       11.10610        7.46760
N        -26.03570       10.50600        6.91660
C        -26.51360       13.59400        9.33350
C        -25.24920       13.07650        9.11450
C        -24.27340       13.99070        9.60240
C        -24.98780       15.11490       10.16450
C        -26.32860       14.88730       10.02080
C        -27.35950       15.75340       10.43280
N        -28.19210       16.47410       10.77720
C        -22.91050       13.79410        9.43450
C        -21.86590       14.63170        9.81890
C        -20.53080       14.42050        9.47560
C        -19.43810       14.84620       10.28110
C        -18.29860       14.17950        9.89100
O        -17.14330       14.32650       10.54710
C        -16.13650       13.32270       10.58140
C        -18.57090       13.42170        8.67770
C        -19.99560       13.54470        8.43680
C        -20.71190       12.96110        7.40180
C        -21.91260       13.42860        6.78670
C        -22.35410       12.46160        5.91860
O        -23.44300       12.58660        5.16410
C        -24.01210       11.45650        4.51820
C        -21.43980       11.31750        5.97650
C        -20.43340       11.63620        6.81770
C        -17.59440       12.98490        7.79790
C        -17.74200       12.69070        6.43590
C        -16.73520       12.13250        5.66710
C        -15.48040       11.61920        6.11280
C        -14.78330       11.11420        5.03580
C        -15.63300       11.31830        3.83930
C        -16.79260       11.91770        4.23440
C        -15.31130       10.94990        2.51910
N        -15.07280       10.65830        1.42840
C        -13.50500       10.49270        5.04550
C        -12.77070       10.02900        3.97140
C        -11.55330        9.45250        4.44390
C        -11.56090        9.57660        5.88600
C        -12.71340       10.20700        6.26020
C        -13.07230       10.52920        7.58300
N        -13.34720       10.79210        8.67310
C        -10.56080        8.90840        3.64320
C         -9.40240        8.29120        4.12290
C         -8.37920        7.80980        3.32140
C         -8.22930        8.05340        1.91940
C         -7.00550        7.58360        1.51460
O         -6.43960        7.60480        0.30550
C         -7.14540        8.18830       -0.77860
C         -6.32970        6.93380        2.61970
C         -7.16620        7.13070        3.78330
C         -6.82510        6.84090        5.09400
C         -7.67040        6.62660        6.22300
C         -6.86870        6.40870        7.31700
O         -7.33490        6.11690        8.53410
C         -6.43370        5.85440        9.59640
C         -5.46870        6.55320        6.92600
C         -5.44000        6.77890        5.59540
C         -5.22240        6.12400        2.41820
C         -4.75510        5.12250        3.27300
C         -3.59740        4.38640        3.06180
C         -2.59280        4.56920        2.07170
C         -1.59000        3.63230        2.25680
C         -1.98660        2.80450        3.41830
C         -3.18030        3.27010        3.88730
C         -1.28140        1.70930        3.94640
N         -0.73100        0.80430        4.40570
C         -0.39190        3.47660        1.51750
C          0.64770        2.58990        1.75850
C          1.66720        2.78780        0.79100
C          1.21670        3.84540       -0.08940
C         -0.01120        4.27050        0.33100
C         -0.77620        5.28330       -0.27700
N         -1.38190        6.11580       -0.79860
C          2.89060        2.12940        0.67050
C          3.31540        1.10710        1.51090
C          4.54630        0.45900        1.40880
C          5.63070        0.84990        0.59990
C          6.73430        0.05550        0.91780
O          7.95460        0.09950        0.36620
C          8.20270        1.00920       -0.69280
C          6.38940       -0.87970        1.93050
C          5.01760       -0.65410        2.25980
C          4.27040       -1.32870        3.21710
C          2.85370       -1.47730        3.30110
C          2.57820       -2.24110        4.41190
O          1.42440       -2.69400        4.88230
C          0.21650       -2.32690        4.22780
C          3.82790       -2.54990        5.10860
C          4.83670       -2.02910        4.38410
C          7.21290       -1.97440        2.37770
C          8.54450       -2.05100        2.26780
H        -45.46730        8.31400        5.75500
H        -43.25110        6.97180        6.31470
H        -44.92020       10.92550        5.78410
H        -40.01180       10.70550        6.87090
H        -38.33200        6.74370        7.44760
H        -36.65680        8.73080        7.65970
H        -37.96730       11.50720        7.50040
H        -36.58900       13.34930        8.49950
H        -34.11220       15.86860        9.97640
H        -35.54680       14.83930       10.24580
H        -35.19950       15.47960        8.61300
H        -35.71170        9.29800        5.51350
H        -34.04270        5.35880        3.59610
H        -33.57230        5.17080        5.30720
H        -32.58560        6.18430        4.21340
H        -32.29700        6.87760        6.68380
H        -32.37380        8.95290        8.31050
H        -31.81300       10.86830        7.74340
H        -31.74080       13.45950        9.40800
H        -29.29260       14.26400        9.90980
H        -29.64350       10.72540        7.39460
H        -25.01190       12.13890        8.63900
H        -24.53080       15.98060       10.61840
H        -22.63890       12.86040        8.95140
H        -22.07560       15.44630       10.50730
H        -19.51510       15.49240       11.14160
H        -15.67800       13.37680       11.57200
H        -15.36940       13.51880        9.82550
H        -16.55960       12.32560       10.43180
H        -22.35750       14.39820        6.93430
H        -24.83130       11.83560        3.90580
H        -24.40930       10.75540        5.26110
H        -23.28310       10.94820        3.87870
H        -21.56770       10.39130        5.43920
H        -19.63080       10.99260        7.14240
H        -16.57820       12.95480        8.17440
H        -18.67420       12.94980        5.94250
H        -15.14700       11.62370        7.13680
H        -17.62310       12.19790        3.60460
H        -13.05180       10.08000        2.93190
H        -10.77840        9.23970        6.54820
H        -10.71580        8.95640        2.56860
H         -9.30110        8.18890        5.19660
H         -8.95140        8.56730        1.30530
H         -6.50120        8.09270       -1.65320
H         -7.35000        9.24720       -0.58640
H         -8.09010        7.66300       -0.95730
H         -8.74030        6.50770        6.20930
H         -7.04560        5.60890       10.46560
H         -5.82090        6.73480        9.81970
H         -5.78030        5.00760        9.35940
H         -4.62550        6.50490        7.59660
H         -4.57290        7.01440        4.99870
H         -4.73830        6.22350        1.44970
H         -5.35660        4.86470        4.14070
H         -2.60920        5.33420        1.31320
H         -3.74080        2.88240        4.72430
H          0.68820        1.87030        2.55930
H          1.77470        4.22150       -0.93330
H          3.53770        2.43950       -0.14570
H          2.64590        0.80260        2.30670
H          5.61990        1.66000       -0.11160
H          9.23440        0.84460       -1.00660
H          8.08440        2.04540       -0.35640
H          7.52910        0.82290       -1.53680
H          2.14380       -1.16470        2.55490
H         -0.59210       -2.81260        4.77510
H          0.21710       -2.67160        3.18810
H          0.07830       -1.24050        4.25180
H          3.87700       -3.08970        6.04070
H          5.88020       -2.01070        4.65420
H          6.67950       -2.81100        2.82090
H          9.15050       -1.25710        1.85770
H          9.07930       -2.92580        2.61150
