154
630_538_01010101.out	Energy:   -3740.5546011
C        -25.28920       41.32880        4.37200
C        -25.57590       40.04760        4.08000
C        -25.01420       39.20330        5.14190
C        -24.36650       40.13550        6.08220
C        -24.54330       41.38140        5.60820
C        -23.67390       39.85060        7.28230
N        -23.10720       39.62650        8.26920
C        -25.10120       37.85730        5.20630
C        -24.55300       37.01430        6.27120
C        -24.87340       35.73090        6.01610
C        -25.59120       35.68910        4.75060
C        -25.74840       36.93150        4.26800
C        -26.43300       37.20760        3.06350
N        -27.00490       37.41710        2.07510
C        -24.50320       34.62980        6.86830
C        -25.22250       33.50090        6.92740
C        -24.92460       32.35080        7.73830
C        -24.73560       32.27980        9.07120
C        -24.76410       33.45730       10.01110
C        -24.48870       30.96530        9.77990
N        -25.14330       29.86080        9.09180
C        -24.46750       28.81140        8.51560
C        -23.45170       28.86390        7.64390
C        -22.85220       27.69520        7.05540
C        -22.68020       26.52110        7.69810
C        -22.00820       25.58450        6.80130
C        -21.79220       26.32770        5.55070
C        -22.27170       27.57080        5.72770
C        -21.23870       25.87460        4.33190
N        -20.79700       25.50710        3.32350
C        -21.65560       24.32380        7.12620
C        -20.91280       23.40660        6.26640
C        -20.68100       22.26950        6.95130
C        -21.28500       22.39500        8.26620
C        -21.88040       23.59460        8.38430
C        -22.61150       23.98660        9.53080
N        -23.21210       24.29670       10.47380
C        -19.95160       21.14240        6.43500
C        -20.31040       20.51410        5.30730
C        -19.61500       19.36400        4.77490
C        -19.97930       18.68550        3.66270
C        -21.20130       19.09660        2.87820
C        -19.12480       17.50280        3.25070
N        -19.50880       16.91350        1.97590
C        -19.99770       15.63230        1.89500
C        -21.25980       15.19040        1.96230
C        -21.59850       13.79290        1.81560
C        -22.84880       13.29130        1.92180
C        -22.78820       11.83820        1.72250
C        -21.37730       11.53270        1.44930
C        -20.69900       12.68600        1.51290
C        -20.76270       10.30440        1.11420
N        -20.24310        9.30430        0.83630
C        -23.82490       10.98160        1.81760
C        -23.70820        9.53250        1.74180
C        -24.91230        8.98400        1.99120
C        -25.87490       10.06280        2.14050
C        -25.24630       11.24770        2.05590
C        -25.90820       12.48920        2.14360
N        -26.45930       13.51030        2.22320
C        -25.16400        7.56970        2.01580
C        -24.23840        6.66310        2.36400
C        -24.49690        5.25230        2.41020
C        -24.87290        4.47650        1.37600
C        -25.02160        4.94520       -0.04550
C        -25.13270        3.01080        1.58210
N        -26.23080        2.85090        2.51090
C        -26.18570        2.26720        3.74840
C        -25.11800        2.07340        4.53080
C        -25.14870        1.40130        5.80120
C        -24.06420        1.27410        6.59410
C        -24.43970        0.51460        7.79330
C        -25.87250        0.21530        7.62310
C        -26.26090        0.73040        6.45420
C        -26.74800       -0.49040        8.48140
N        -27.48030       -1.06240        9.17700
C        -23.61510        0.16840        8.79600
C        -24.00570       -0.58180        9.98800
C        -22.91470       -0.76260       10.75370
C        -21.78380       -0.12200       10.10600
C        -22.17690        0.43020        8.94660
C        -21.29470        1.10350        8.07230
N        -20.55940        1.64850        7.35830
C        -22.93650       -1.47090       11.99910
C        -22.16310       -2.53660       12.24760
C        -22.18190       -3.21650       13.51850
C        -21.80600       -2.67400       14.69530
C        -21.26190       -1.27540       14.83630
C        -21.90140       -3.45240       15.98540
N        -21.00390       -4.58400       15.90670
C        -20.41200       -5.22130       16.95740
C        -19.64280       -6.30780       16.87310
H        -25.55950       42.14590        3.80250
H        -26.09900       39.71610        3.25440
H        -24.19880       42.24360        6.05870
H        -24.01070       37.34850        7.08320
H        -25.93000       34.82930        4.29130
H        -23.65650       34.71330        7.45220
H        -26.06750       33.45210        6.33700
H        -24.84460       31.45650        7.22950
H        -24.94150       34.35370        9.45450
H        -23.82460       33.53200       10.51780
H        -25.54650       33.32220       10.72850
H        -24.87100       31.03000       10.77720
H        -23.43490       30.77980        9.78920
H        -26.12620       29.86620        9.03620
H        -24.78150       27.86690        8.78820
H        -23.07980       29.78990        7.38080
H        -22.97540       26.31810        8.66590
H        -22.23350       28.32580        5.02510
H        -20.61540       23.59720        5.29670
H        -21.26080       21.67070        9.00080
H        -19.12340       20.80610        6.95080
H        -21.12880       20.87110        4.78990
H        -18.77780       19.03600        5.28130
H        -21.65210       19.94940        3.34120
H        -21.90220       18.28830        2.86030
H        -20.91600       19.34340        1.87690
H        -19.20380       16.75030        4.00720
H        -18.12510       17.86670        3.13630
H        -19.41590       17.44560        1.15270
H        -19.28370       14.89900        1.76230
H        -22.01770       15.87180        2.12450
H        -23.70320       13.83820        2.11140
H        -19.68140       12.77830        1.36790
H        -22.84320        9.01050        1.53120
H        -26.88850        9.93770        2.28920
H        -26.10380        7.23430        1.75240
H        -23.29360        6.99690        2.61090
H        -24.38370        4.78740        3.32450
H        -24.81940        5.99460       -0.09810
H        -26.02040        4.75730       -0.38040
H        -24.33110        4.41710       -0.66940
H        -24.25600        2.54390        1.98000
H        -25.38170        2.55370        0.64730
H        -27.10480        3.19960        2.22150
H        -27.08760        1.93530        4.12450
H        -24.20870        2.43150        4.19920
H        -23.12450        1.64930        6.39080
H        -27.21580        0.66190        6.06870
H        -24.95760       -0.91620       10.20540
H        -20.82250       -0.09510       10.48040
H        -23.57770       -1.14500       12.73920
H        -21.53420       -2.88150       11.50560
H        -22.50870       -4.19530       13.52910
H        -21.23200       -0.80580       13.87540
H        -20.27350       -1.31670       15.24410
H        -21.89400       -0.71100       15.48960
H        -22.90480       -3.79670       16.12570
H        -21.63180       -2.82760       16.81110
H        -20.80040       -4.92770       15.00690
H        -20.57320       -4.82930       17.89830
H        -19.45310       -6.73570       15.95330
H        -19.23730       -6.72050       17.72770
