138
630_1212_01010101.out	Energy:   -7560.7049421
C         -0.06850       -2.60050        0.72030
C          0.07180       -1.47000       -0.01970
C         -1.01450       -0.57070        0.29520
C         -1.83150       -1.26550        1.30330
C         -1.24920       -2.47910        1.54550
C         -2.99840       -0.77230        1.91520
N         -3.95600       -0.38160        2.42690
C         -1.25060        0.68310       -0.23120
C         -2.32480        1.55850        0.07550
C         -2.19440        2.73140       -0.67050
C         -0.98990        2.59700       -1.48270
C         -0.42100        1.38770       -1.23650
C          0.75660        0.90070       -1.83950
N          1.72200        0.53530       -2.35310
C         -3.02230        3.86580       -0.69090
C         -4.18290        3.98940        0.05250
C         -5.04670        5.09160        0.07230
C         -4.88090        6.31400       -0.65230
N         -3.87010        6.58360       -1.45730
S         -4.06810        8.08830       -2.08280
N         -5.47650        8.42720       -1.32100
C         -5.83100        7.40510       -0.56870
C         -6.22860        5.04670        0.87860
N         -6.55870        4.00890        1.62430
S         -7.97040        4.33650        2.39060
N         -8.18690        5.83950        1.76880
C         -7.18560        6.12650        0.95990
C         -7.02490        7.36070        0.23740
C         -7.93380        8.41850        0.30790
C         -7.82750        9.69120       -0.32730
C         -8.93140       10.46170       -0.01510
C         -9.79480        9.63620        0.86340
C         -9.18620        8.43410        1.05100
C        -11.02650       10.02890        1.42150
N        -12.03650       10.33270        1.88860
C         -9.20840       11.78710       -0.43040
C        -10.34020       12.54210       -0.18490
C        -10.18950       13.83090       -0.78010
C         -8.88520       13.84720       -1.42160
C         -8.29190       12.63780       -1.22810
C         -7.01370       12.27810       -1.70110
N         -5.96340       12.02090       -2.10240
C        -11.12320       14.84970       -0.73680
C        -10.92180       16.11710       -1.30120
C        -11.81270       17.17650       -1.30390
C        -13.14300       17.18350       -0.75760
N        -13.70930       16.16230       -0.15160
S        -15.22710       16.58830        0.31770
N        -15.17670       18.11990       -0.26420
C        -14.00860       18.34120       -0.82880
C        -11.42380       18.42590       -1.90400
N        -10.24290       18.62360       -2.44970
S        -10.17310       20.16480       -3.01830
N        -11.69000       20.60240       -2.56170
C        -12.27920       19.58600       -1.96660
C        -13.62390       19.59130       -1.44240
C        -14.47460       20.68820       -1.52980
C        -15.83950       20.76830       -1.10210
C        -16.34010       22.02200       -1.37950
C        -15.24060       22.79440       -2.00850
C        -14.14850       21.98940       -2.09580
C        -15.30610       24.12840       -2.45580
N        -15.33400       25.21800       -2.83330
C        -17.65070       22.51400       -1.14480
C        -18.13540       23.78290       -1.38570
C        -19.51990       23.83780       -1.03480
C        -19.88220       22.51890       -0.54630
C        -18.77990       21.72090       -0.60030
C        -18.73410       20.36690       -0.21200
N        -18.72820       19.26030        0.11310
C        -20.32190       24.95510       -1.16760
C        -21.69480       24.98930       -0.88670
C        -22.53310       26.08330       -1.02580
C        -23.94230       25.94020       -0.77280
N        -24.49110       24.82080       -0.35110
S        -26.11170       25.05280       -0.19540
N        -26.12760       26.61950       -0.68050
C        -24.90010       27.00100       -0.97200
C        -22.14830       27.41020       -1.42680
N        -20.91090       27.79230       -1.65770
S        -20.90500       29.37920       -2.08640
N        -22.52670       29.60500       -1.98030
C        -23.10680       28.47990       -1.61410
C        -24.52700       28.31340       -1.43310
C        -25.46120       29.31690       -1.70000
C        -26.87840       29.21120       -1.63220
C        -27.45720       30.41590       -2.01050
C        -26.34260       31.34220       -2.31930
C        -25.17110       30.67670       -2.13630
C        -26.46080       32.68350       -2.73360
N        -26.52830       33.78420       -3.07160
C        -28.82750       30.72230       -2.11590
C        -29.40790       31.92310       -2.52000
C        -30.81360       31.79320       -2.50630
C        -31.11610       30.44140       -2.06480
C        -29.94320       29.79050       -1.82730
C        -29.82440       28.45810       -1.38540
N        -29.76040       27.36410       -1.02520
C        -31.71770       32.79760       -2.86710
C        -33.09240       32.64850       -2.86800
C        -34.03610       33.62630       -3.23190
C        -35.42730       33.30860       -3.18680
N        -35.91590       32.13630       -2.81750
S        -37.55110       32.20070       -2.91250
N        -37.68780       33.73960       -3.43220
C        -36.46290       34.25700       -3.54990
C        -33.74760       34.95640       -3.66270
N        -32.54350       35.48850       -3.78670
S        -32.69650       37.03430       -4.30980
N        -34.32250       37.07890       -4.39710
C        -34.80210       35.89170       -4.02190
C        -36.15670       35.55290       -3.96930
H          0.58030       -3.46340        0.71370
H          0.85320       -1.25830       -0.73070
H         -1.60080       -3.23120        2.23510
H         -3.11180        1.34110        0.77880
H         -0.63110        3.35200       -2.16570
H         -2.72070        4.68180       -1.33960
H         -4.48110        3.15880        0.68760
H         -7.00710        9.99830       -0.95200
H         -9.56440        7.61780        1.64380
H        -11.21290       12.22960        0.36520
H         -8.46600       14.68050       -1.96340
H        -12.06080       14.65170       -0.22700
H         -9.96730       16.31070       -1.78430
H        -16.38400       19.96190       -0.64220
H        -13.19170       22.26340       -2.50830
H        -17.58270       24.61910       -1.78160
H        -20.86110       22.22980       -0.19700
H        -19.84990       25.86040       -1.53650
H        -22.17160       24.07080       -0.55350
H        -27.41590       28.32310       -1.34770
H        -24.18380       31.08340       -2.27980
H        -28.88160       32.81860       -2.80730
H        -32.10660       30.03020       -1.94690
H        -31.29290       33.74980       -3.16940
H        -33.51410       31.69290       -2.56710
H        -36.92750       36.26130       -4.24090
