174
630_559_01010101.out	Energy:   -6519.7950300
C         14.60020       28.48440       -8.56040
C         14.18050       27.22630       -8.78470
C         13.00610       26.98060       -7.93730
C         12.78930       28.23880       -7.19870
C         13.74060       29.10800       -7.58250
C         11.79610       28.55030       -6.24300
N         10.98630       28.81590       -5.45360
C         12.31000       25.82490       -7.86930
C         11.14810       25.57780       -7.01460
C         10.74090       24.30720       -7.19890
C         11.61220       23.68180       -8.17600
C         12.53740       24.56570       -8.59080
C         13.51140       24.25750       -9.56380
N         14.30510       23.99350      -10.36960
C          9.62530       23.72870       -6.50400
C          8.58780       23.16360       -7.13730
C          7.45020       22.65870       -6.44340
S          5.93440       22.74370       -7.25050
C          5.07780       22.08630       -5.92820
C          5.91360       21.82940       -4.85780
C          7.30350       22.07410       -5.19040
C          8.40550       21.74890       -4.21580
F          9.43860       21.11600       -4.84110
C          7.93620       20.84010       -3.07940
C          6.62520       21.34390       -2.48500
C          5.49090       21.29160       -3.51440
F          4.45040       22.01220       -3.00730
C          3.67710       21.91240       -6.05070
C          3.17540       20.76350       -6.53490
C          1.76530       20.51800       -6.71310
C          0.80110       21.10550       -5.97550
C         -0.49790       20.59830       -6.39880
C         -0.21070       19.57690       -7.41750
C          1.12170       19.55180       -7.59530
C         -1.11450       18.73610       -8.11490
N         -1.84390       18.03850       -8.68410
C         -1.67880       21.04850       -5.93270
C         -2.98550       20.57540       -6.37240
C         -3.92750       21.33060       -5.78070
C         -3.27400       22.26710       -4.88120
C         -1.94190       22.11100       -4.94870
C         -1.02700       22.86280       -4.17120
N         -0.30400       23.48570       -3.50930
C         -5.32850       21.11260       -5.97720
C         -6.22660       22.10130       -5.93090
C         -7.59410       21.82980       -6.15250
S         -8.32380       22.60870       -7.45930
C         -9.88000       21.94940       -7.14040
C         -9.84100       21.16500       -5.99390
C         -8.49080       21.02430       -5.47680
C         -8.17790       20.17000       -4.27970
F         -7.07800       19.39430       -4.49710
C         -9.32250       19.21640       -3.94210
C        -10.66410       19.94040       -3.94270
C        -11.01140       20.47320       -5.33900
F        -12.06360       21.33020       -5.19560
C        -10.98160       22.25480       -7.99740
C        -10.82610       23.02780       -9.08210
C        -11.85020       23.38600      -10.00630
C        -11.56100       23.71670      -11.28030
C        -12.80290       24.07900      -11.94470
C        -13.84420       24.01870      -10.90780
C        -13.26220       23.60010       -9.77340
C        -15.21110       24.35480      -10.98840
N        -16.34000       24.62870      -11.03830
C        -12.91790       24.36280      -13.25440
C        -14.17390       24.66800      -13.91300
C        -13.93730       24.83590      -15.22480
C        -12.52060       24.62770      -15.46980
C        -11.89410       24.38650      -14.30730
C        -10.49280       24.22610      -14.19480
N         -9.34320       24.10920      -14.10960
C        -14.96310       25.09890      -16.18780
C        -16.04900       25.84990      -15.93620
C        -17.02530       26.11290      -16.93520
S        -16.56610       26.16890      -18.58500
C        -18.14010       26.51390      -19.11780
C        -19.00720       26.70790      -18.05730
C        -18.37980       26.38300      -16.78950
C        -19.16180       26.37830      -15.49610
F        -18.89030       25.25680      -14.76910
C        -20.67760       26.40830      -15.73240
C        -21.05260       27.44300      -16.78610
C        -20.46090       27.08720      -18.15020
F        -20.63650       28.18310      -18.94210
C        -18.32960       26.53920      -20.51790
C        -18.83930       27.61140      -21.13110
C        -19.01440       27.66740      -22.55250
C        -18.97150       28.82040      -23.24770
C        -19.19840       28.51340      -24.65910
C        -19.46610       27.06710      -24.71630
C        -19.34730       26.58790      -23.46820
C        -19.81620       26.26200      -25.82340
N        -20.11120       25.58640      -26.72600
C        -19.12840       29.40410      -25.66750
C        -19.32950       29.08660      -27.07660
C        -19.10760       30.19710      -27.80280
C        -18.80080       31.28690      -26.88970
C        -18.81820       30.83860      -25.62390
C        -18.59680       31.67260      -24.50020
N        -18.41280       32.36760      -23.58630
C        -19.27210       30.23040      -29.22890
C        -18.38620       30.79060      -30.06340
C        -18.61130       30.75880      -31.46380
S        -18.05280       29.40900      -32.33940
C        -18.57980       30.02620      -33.85680
C        -19.12570       31.29710      -33.69560
C        -19.19690       31.69620      -32.29790
C        -19.77530       33.02320      -31.87100
F        -20.61150       32.88070      -30.80290
C        -20.57640       33.70280      -32.98640
C        -19.84040       33.64070      -34.32110
C        -19.65500       32.19230      -34.79110
F        -18.80330       32.22280      -35.85610
C        -18.36980       29.26840      -35.05210
C        -18.36250       27.92670      -35.06890
H         15.41000       28.93360       -9.01600
H         14.60870       26.55170       -9.43790
H         13.84090       30.07330       -7.23170
H         10.71320       26.26280       -6.37700
H         11.53400       22.70630       -8.50340
H          9.62220       23.74880       -5.47220
H          8.61390       23.09150       -8.16640
H          8.71860       22.68890       -3.81180
H          8.68370       20.82200       -2.31400
H          7.77810       19.85700       -3.47120
H          6.75530       22.35520       -2.16070
H          6.36330       20.71310       -1.66130
H          5.20600       20.27410       -3.68320
H          3.03880       22.67190       -5.76670
H          3.83640       20.01460       -6.79380
H          0.95790       21.80240       -5.23070
H          1.61730       18.93750       -8.26020
H         -3.15790       19.79520       -7.02550
H         -3.76120       22.95010       -4.28030
H         -5.65860       20.15250       -6.16220
H         -5.91940       23.06630       -5.73260
H         -8.01270       20.85510       -3.47460
H         -9.15280       18.79750       -2.97220
H         -9.35280       18.44780       -4.68590
H        -10.61690       20.76160       -3.25840
H        -11.42250       19.24490       -3.64910
H        -11.26640       19.65630       -5.98130
H        -11.91490       21.87320       -7.77740
H         -9.87960       23.39640       -9.26410
H        -10.62240       23.71340      -11.70930
H        -13.74670       23.45370       -8.87400
H        -15.09390       24.74340      -13.45170
H        -12.06550       24.66030      -16.39550
H        -14.86320       24.68830      -17.12940
H        -16.17730       26.24650      -14.99210
H        -18.86240       27.26070      -14.97010
H        -21.16890       26.65240      -14.81370
H        -20.98440       25.44440      -16.08100
H        -20.68020       28.39930      -16.48340
H        -22.11870       27.46250      -16.87540
H        -20.95300       26.22910      -18.55840
H        -18.06900       25.71260      -21.07820
H        -19.11620       28.42660      -20.56200
H        -18.80670       29.75920      -22.85210
H        -19.47340       25.59980      -23.19840
H        -19.59740       28.16410      -27.45370
H        -18.60000       32.25890      -27.17210
H        -20.11840       29.79960      -29.63290
H        -17.53960       31.24540      -29.68740
H        -18.93110       33.62900      -31.61560
H        -20.73590       34.72800      -32.72470
H        -21.50800       33.18720      -33.09250
H        -18.87870       34.09640      -34.20990
H        -20.42440       34.15980      -35.05210
H        -20.60140       31.77780      -35.06930
H        -18.21760       29.77480      -35.93830
H        -18.51250       27.39890      -34.19480
H        -18.20690       27.42260      -35.95580
