154
630_794_01010101.out	Energy:   -4063.2123936
C         -6.51970        0.63000        0.52950
C         -5.77080        1.49320       -0.18020
C         -5.10920        2.40370        0.76450
C         -5.56830        1.97830        2.10030
C         -6.39320        0.93020        1.93630
C         -5.25730        2.53090        3.36630
N         -5.00870        2.97770        4.40750
C         -4.25880        3.40090        0.43580
C         -3.58790        4.28930        1.38350
C         -2.78680        5.13510        0.70410
C         -2.95660        4.86540       -0.71520
C         -3.79750        3.83110       -0.88920
C         -4.11550        3.29610       -2.15880
N         -4.36280        2.86530       -3.20560
C         -1.95660        6.14960        1.30490
C         -1.37300        6.01220        2.50430
N         -0.51740        6.87320        3.15740
C          0.31490        7.86350        2.49550
N          1.28690        8.50960        3.38300
C          1.15730        7.74300        4.61710
C          0.17890        6.53140        4.39420
N         -0.69690        6.57190        5.54630
C         -0.59140        7.90850        6.10040
N          0.55120        8.67540        5.57520
C         -1.29330        5.51040        6.17500
C         -2.47400        5.46420        6.82770
C         -2.70120        4.09050        7.28430
C         -1.47900        3.35300        6.93440
C         -0.67230        4.19790        6.27000
C         -1.08880        2.06170        7.35350
N         -0.78120        1.00220        7.72530
C         -3.82980        3.61010        7.84610
C         -4.11460        2.19620        8.06660
C         -5.38100        2.06830        8.50810
C         -5.92120        3.40550        8.70480
C         -5.02930        4.32250        8.29140
C         -5.22580        5.71590        8.39930
N         -5.38600        6.85990        8.50960
C         -6.01450        0.80780        8.79640
C         -5.69900       -0.34590        8.18810
N         -6.21430       -1.60360        8.41940
C         -7.24790       -1.88730        9.40100
N         -7.44150       -3.31170        9.67310
C         -6.34090       -3.93030        8.94740
C         -5.40590       -2.81640        8.33960
N         -5.17740       -3.26050        6.97570
C         -6.30250       -4.12830        6.66350
N         -6.98090       -4.66890        7.85220
C         -3.96580       -3.26170        6.32420
C         -3.60220       -3.90260        5.19270
C         -2.18910       -3.62810        4.91640
C         -1.75410       -2.72370        5.98880
C         -2.80510       -2.51940        6.79750
C         -0.47390       -2.15640        6.21520
N          0.58190       -1.72290        6.39310
C         -1.47700       -4.12770        3.88420
C         -0.07500       -3.82980        3.60090
C          0.28890       -4.50530        2.49560
C         -0.85770       -5.24590        2.00490
C         -1.90230       -5.05320        2.82450
C         -3.14410       -5.70680        2.65930
N         -4.15700       -6.25450        2.52830
C          1.58400       -4.42980        1.89490
C          2.73710       -4.74120        2.49530
N          4.01020       -4.65260        1.97700
C          5.21660       -5.05900        2.68240
N          6.46140       -4.68550        2.00490
C          5.99180       -4.10860        0.75400
C          4.43730       -3.83280        0.84980
N          3.93630       -4.33960       -0.42120
C          4.88570       -5.38170       -0.79040
N          6.23800       -5.13940       -0.26890
C          3.20680       -3.60510       -1.32730
C          3.16530       -3.73470       -2.66760
C          2.21940       -2.77020       -3.21430
C          1.67440       -2.05380       -2.05640
C          2.28130       -2.54040       -0.96280
C          0.71090       -1.02090       -2.00840
N         -0.07190       -0.16540       -1.95290
C          1.95000       -2.60680       -4.52370
C          0.99650       -1.64980       -5.05750
C          0.98980       -1.73550       -6.40130
C          1.94410       -2.76650       -6.78570
C          2.51350       -3.29220       -5.69010
C          3.48640       -4.31610       -5.73500
N          4.28470       -5.15370       -5.76560
C          0.16820       -0.94010       -7.27520
C         -0.68740        0.00790       -6.86790
N         -1.50430        0.79930       -7.63520
C         -2.41730        1.79930       -7.11190
N         -3.12340        2.52010       -8.17140
C         -2.89520        1.68300       -9.34140
C         -1.91910        0.51320       -8.99650
N         -0.96800        0.55060      -10.10900
C         -0.84060        1.97060      -10.36940
N         -2.18950        2.52000      -10.31010
H         -7.09490       -0.12850        0.13080
H         -5.67740        1.51260       -1.20780
H         -6.86410        0.41850        2.69880
H         -3.70810        4.27200        2.40830
H         -2.49890        5.39080       -1.47640
H         -1.80360        7.02760        0.78450
H         -1.59550        5.14000        3.00900
H         -0.32180        8.61940        2.08560
H          0.87490        7.34720        1.74410
H          1.05150        9.49070        3.53340
H          2.09720        7.35490        4.94990
H          0.61300        5.55720        4.30910
H         -0.48520        7.82730        7.16200
H         -1.47920        8.43580        5.81970
H          1.20630        8.91450        6.31960
H         -3.11010        6.26260        6.97960
H          0.25240        3.95180        5.88360
H         -3.45310        1.41980        7.90970
H         -6.84970        3.61780        9.10200
H         -6.75600        0.79070        9.51410
H         -4.97780       -0.28380        7.45260
H         -8.17200       -1.48580        9.04080
H         -6.93120       -1.43890       10.31950
H         -8.34230       -3.63430        9.31970
H         -5.74470       -4.55610        9.57820
H         -4.46300       -2.64340        8.81490
H         -5.94390       -4.94840        6.07710
H         -7.01980       -3.53320        6.13790
H         -6.82240       -5.67240        7.94240
H         -4.22100       -4.49200        4.61420
H         -2.79290       -1.92010        7.63750
H          0.53330       -3.20670        4.15480
H         -0.86830       -5.83160        1.15520
H          1.63290       -4.10780        0.91560
H          2.66470       -5.09010        3.46380
H          5.19960       -6.12330        2.79110
H          5.21140       -4.54700        3.62190
H          7.04610       -5.50380        1.83470
H          6.48500       -3.18630        0.52830
H          4.11530       -2.82330        0.99830
H          4.93640       -5.43370       -1.85790
H          4.53730       -6.29790       -0.36130
H          6.86080       -4.79490       -0.99960
H          3.71620       -4.41030       -3.22000
H          2.11590       -2.20760        0.00000
H          0.41660       -1.00660       -4.49630
H          2.15150       -3.05040       -7.75600
H          0.24340       -1.11230       -8.28990
H         -0.73820        0.16180       -5.84870
H         -1.85920        2.50330       -6.53070
H         -3.14960        1.29310       -6.51830
H         -2.73190        3.45240       -8.30500
H         -3.82650        1.29280       -9.69520
H         -2.24450       -0.50520       -8.95160
H         -1.33490        0.05850      -10.92370
H         -0.41670        2.13300      -11.33830
H         -0.19750        2.44080       -9.65520
H         -2.63880        2.46730      -11.22430
