206
630_947_01010101.out	Energy:   -5201.6725707
C        -18.58700       -1.68620        5.39500
C        -19.66800       -0.89250        5.50090
C        -19.35260        0.39650        4.87190
C        -17.97130        0.25420        4.37000
C        -17.54160       -0.97810        4.69420
C        -17.18700        1.18660        3.65290
N        -16.53930        1.95010        3.06550
C        -20.17860        1.46460        4.80730
C        -19.85270        2.77300        4.23580
C        -20.91330        3.59280        4.39010
C        -21.96280        2.85210        5.05900
C        -21.55550        1.59660        5.30290
C        -22.38230        0.62490        5.90370
N        -23.07640       -0.16490        6.39530
C        -20.95910        4.98470        4.03480
C        -20.71430        5.45830        2.80370
C        -20.59600        6.90050        2.58290
C        -19.41100        7.63350        2.74410
O        -18.14640        7.17820        3.01380
C        -18.01000        5.95910        3.72290
C        -19.44890        9.01890        2.55790
C        -20.63060        9.69110        2.20330
C        -21.79700        8.95530        1.96970
C        -21.76550        7.56960        2.17940
O        -22.98710        9.38450        1.44910
C        -23.47310       10.69370        1.72570
C        -23.33820       11.60340        0.51340
C        -20.50620       11.13410        2.06360
C        -20.69300       11.97140        3.09320
C        -20.64420       13.39540        2.91570
C        -19.58170       13.98810        2.36400
C        -19.44910       15.40370        2.31230
C        -18.43510       16.01330        2.94810
C        -18.59690       17.44750        2.77760
C        -19.81800       17.62620        1.98010
C        -20.30660       16.40440        1.71090
C        -20.43570       18.82030        1.54870
N        -20.95850       19.79200        1.18880
C        -17.75730       18.36160        3.29020
C        -17.91370       19.80140        3.16100
C        -16.89610       20.38230        3.81790
C        -16.04850       19.36620        4.39080
C        -16.53870       18.16080        4.09410
C        -15.94330       16.98190        4.51900
N        -15.41170       15.98870        4.83570
C        -16.79950       21.79560        3.93440
C        -15.71150       22.51420        3.61580
C        -15.72910       23.98480        3.52410
C        -14.63720       24.75740        3.10380
O        -13.39570       24.17280        2.98480
C        -12.32850       25.04580        2.59030
C        -14.84950       26.11430        2.82250
C        -16.08420       26.77150        2.96980
C        -17.06130       26.04960        3.67310
C        -16.90710       24.66770        3.84110
O        -18.14130       26.43900        4.42310
C        -18.33870       27.80970        4.69570
C        -17.10430       28.50780        5.28110
C        -15.99500       28.20940        2.57560
C        -16.99110       29.08760        2.41520
C        -16.83980       30.50620        2.57190
C        -17.85210       31.23730        3.07640
C        -17.83830       32.64750        2.92280
C        -17.65340       33.13320        1.68460
C        -17.69340       34.56520        1.76180
C        -17.94770       34.89760        3.16980
C        -18.05570       33.73920        3.84340
C        -18.02960       36.16770        3.77920
N        -18.07480       37.20840        4.29150
C        -17.53120       35.34850        0.68990
C        -17.59750       36.78530        0.73370
C        -17.41200       37.23640       -0.51340
C        -17.25670       36.11670       -1.41790
C        -17.29770       34.98440       -0.70690
C        -17.14960       33.70730       -1.33350
N        -17.01060       32.67800       -1.78670
C        -17.49210       38.60410       -0.87880
C        -17.09220       39.63060       -0.11640
C        -17.17930       41.02280       -0.57250
C        -16.83520       42.08280        0.26780
O        -16.33370       41.84460        1.52650
C        -15.45960       42.86840        2.02110
C        -17.03710       43.37740       -0.19490
C        -17.51510       43.67570       -1.48190
C        -17.80420       42.62060       -2.35050
C        -17.61570       41.31760       -1.88470
O        -18.40600       42.67820       -3.58240
C        -17.90970       43.58690       -4.56160
C        -19.06060       44.10640       -5.41810
C        -17.67350       45.08890       -1.81780
C        -17.10210       46.11960       -1.18200
C        -17.05010       47.36910       -1.87100
C        -15.87300       47.98220       -2.04200
C        -15.77270       49.13980       -2.86650
C        -16.46010       50.26750       -2.61550
C        -16.26070       51.17880       -3.73510
C        -15.33160       50.49020       -4.64700
C        -15.06440       49.28230       -4.12140
C        -14.74850       50.95700       -5.84600
N        -14.25070       51.32650       -6.82750
C        -16.92240       52.34370       -3.86950
C        -16.94460       53.18890       -5.05730
C        -17.83740       54.18240       -4.84870
C        -18.35110       54.07190       -3.50590
C        -17.82690       52.99120       -2.91010
C        -18.12020       52.64610       -1.57490
N        -18.38240       52.37460       -0.47930
C        -18.17010       55.19750       -5.80530
C        -17.82340       56.48650       -5.64050
C        -17.82670       57.45510       -6.75080
C        -17.47820       57.15850       -8.07130
O        -17.01650       55.95280       -8.53610
C        -15.97770       55.30870       -7.79490
C        -17.70080       58.12390       -9.06730
C        -18.14910       59.43870       -8.78180
C        -18.38690       59.77310       -7.43400
C        -18.20130       58.77360       -6.45040
O        -18.86770       60.90180       -6.82560
C        -19.13650       62.12800       -7.48030
C        -17.96770       63.08500       -7.28640
C        -18.44460       60.23230       -9.99250
C        -18.04390       61.48800      -10.23750
C        -18.64740       62.30180      -11.26620
C        -18.49680       62.07770      -12.56390
H        -18.51590       -2.64980        5.75750
H        -20.56360       -1.14550        5.94690
H        -16.60790       -1.35930        4.47570
H        -18.95810        3.02660        3.78810
H        -22.88790        3.23360        5.31100
H        -21.19570        5.66400        4.77480
H        -20.60930        4.80520        2.01160
H        -16.97150        5.73800        3.85560
H        -18.47470        5.17040        3.16900
H        -18.48070        6.04850        4.67960
H        -18.58210        9.56440        2.68490
H        -22.62830        7.02270        2.03290
H        -22.91230       11.10910        2.53680
H        -24.51010       10.62150        1.97900
H        -22.30610       11.68830        0.24430
H        -23.72610       12.57220        0.74960
H        -23.88760       11.18930       -0.30610
H        -20.26580       11.52630        1.13980
H        -20.87570       11.58490        4.03260
H        -21.44460       13.97150        3.21980
H        -18.83380       13.40100        1.96290
H        -17.67510       15.54560        3.46640
H        -21.15860       16.20940        1.16210
H        -18.67010       20.28900        2.65580
H        -15.19560       19.54340        4.94420
H        -17.62390       22.30510        4.28890
H        -14.82710       22.01670        3.42740
H        -11.41650       24.48950        2.52980
H        -12.22200       25.82780        3.31280
H        -12.55080       25.47140        1.63410
H        -14.04650       26.66770        2.48480
H        -17.70180       24.12720        4.21720
H        -19.14260       27.90230        5.39590
H        -18.55290       28.28590        3.76180
H        -16.85370       28.06070        6.22040
H        -17.31700       29.54640        5.42580
H        -16.28130       28.40300        4.60540
H        -15.04370       28.57150        2.40530
H        -17.92350       28.72360        2.16380
H        -15.95680       30.96520        2.29860
H        -18.63140       30.77540        3.57070
H        -17.50820       32.57500        0.82880
H        -18.26000       33.64560        4.85070
H        -17.75860       37.36300        1.57350
H        -17.13470       36.18130       -2.44070
H        -17.88980       38.82630       -1.80480
H        -16.71020       39.43600        0.82240
H        -15.11800       42.60350        2.99980
H        -15.98860       43.79730        2.06720
H        -14.62020       42.96810        1.36510
H        -16.82440       44.16190        0.44100
H        -17.80380       40.53310       -2.52840
H        -17.20160       43.08350       -5.18620
H        -17.43640       44.41100       -4.06990
H        -19.53670       43.28510       -5.91180
H        -18.68120       44.79020       -6.14850
H        -19.77090       44.60820       -4.79470
H        -18.28260       45.31370       -2.62000
H        -16.71440       46.01480       -0.23130
H        -17.91570       47.79710       -2.23510
H        -15.03100       47.61360       -1.57280
H        -17.03000       50.45520       -1.77580
H        -14.45090       48.56890       -4.54530
H        -16.37760       53.05250       -5.90880
H        -19.02030       54.72530       -3.06970
H        -18.69530       54.92890       -6.65210
H        -17.54460       56.80940       -4.70080
H        -15.72000       54.38550       -8.27050
H        -16.31780       55.11430       -6.79920
H        -15.11760       55.94430       -7.76030
H        -17.53040       57.86460      -10.05150
H        -18.34910       59.02710       -5.46100
H        -20.02350       62.56300       -7.06920
H        -19.27430       61.94680       -8.52580
H        -17.82670       63.26880       -6.24180
H        -18.17580       64.00810       -7.78600
H        -17.07940       62.65060       -7.69520
H        -19.01520       59.77530      -10.72090
H        -17.27840       61.88640       -9.67160
H        -19.22860       63.10320      -10.97470
H        -17.92160       61.28410      -12.88710
H        -18.95490       62.69660      -13.25100
