138
630_160_01010101.out	Energy:   -6911.2092253
C        -10.95260        1.12910      -16.21180
C        -10.00030        1.66240      -15.40910
C        -10.33540        3.04980      -15.14410
C        -11.59230        3.29960      -15.87280
C        -11.94450        2.14120      -16.50420
C        -12.30590        4.51190      -15.91710
N        -12.90960        5.49360      -15.97000
C         -9.63870        3.94750      -14.38050
C         -9.96870        5.31730      -14.11470
C         -9.00640        5.87230      -13.30650
C         -8.00700        4.83950      -13.02520
C         -8.36950        3.69250      -13.65450
C         -7.65400        2.47900      -13.61710
N         -7.04530        1.50120      -13.56140
C         -8.99360        7.22090      -12.83080
C         -8.00820        7.72440      -12.05860
N         -7.90970        9.00980      -11.55750
C         -8.80330       10.08460      -11.67350
S        -10.25220       10.11960      -12.44500
C         -8.20680       11.18020      -10.96780
C         -7.00330       10.79500      -10.44250
C         -6.79550        9.39500      -10.81100
S         -5.52000        8.44550      -10.43520
C         -6.04470       11.52140       -9.67360
C         -6.19200       12.81590       -9.28800
C         -5.24110       13.55380       -8.52590
C         -5.39090       14.86110       -8.10720
C         -4.23240       15.25850       -7.37170
C         -3.33500       14.08520       -7.36640
C         -3.94640       13.07980       -8.05100
C         -2.06690       14.00970       -6.75620
N         -1.02750       13.92150       -6.26480
C         -3.99020       16.47870       -6.77780
C         -2.83420       16.89100       -6.05350
C         -3.00330       18.18870       -5.61820
C         -4.31790       18.64430       -6.07280
C         -4.91330       17.64070       -6.76740
C         -6.18710       17.70450       -7.36610
N         -7.23210       17.78770       -7.84660
C         -2.05640       18.95170       -4.87200
C         -2.30380       20.21070       -4.44540
N         -1.45850       21.04420       -3.74320
C         -0.12000       20.85220       -3.36400
S          0.81580       19.52700       -3.61300
C          0.28860       22.05990       -2.70990
C         -0.75100       22.95010       -2.68430
C         -1.89020       22.30950       -3.33970
S         -3.38460       22.92710       -3.57120
C         -0.84030       24.27870       -2.17170
C          0.19680       24.98420       -1.64900
C          0.09990       26.32840       -1.18620
C          1.15280       27.11940       -0.76970
C          0.66320       28.41980       -0.43560
C         -0.79730       28.36980       -0.64950
C         -1.11760       27.12610       -1.10030
C         -1.71150       29.41990       -0.43000
N         -2.48320       30.25830       -0.25420
C          1.39150       29.52380       -0.04650
C          0.91050       30.83790        0.21930
C          1.97470       31.66890        0.50030
C          3.19690       30.86560        0.44060
C          2.86500       29.58770        0.12240
C          3.76670       28.51460       -0.01990
N          4.52510       27.65320       -0.13260
C          1.88340       33.06620        0.76890
C          2.96210       33.86640        0.92550
N          2.96280       35.22900        1.14070
C          1.88200       36.10170        1.34870
S          0.28930       35.72500        1.47580
C          2.44250       37.41540        1.45310
C          3.80400       37.35330        1.32460
C          4.16050       35.94820        1.13480
S          5.65350       35.31380        0.94380
C          4.78850       38.38680        1.32760
C          4.50650       39.71170        1.43670
C          5.47040       40.75910        1.38750
C          5.18630       42.10950        1.43760
C          6.39980       42.85340        1.31090
C          7.47820       41.85050        1.19540
C          6.91400       40.61250        1.24200
C          8.85530       42.12160        1.06580
N          9.98650       42.31780        0.96010
C          6.54510       44.22330        1.26840
C          7.74080       44.97580        1.07800
C          7.43830       46.32080        1.05760
C          5.99450       46.45740        1.25710
C          5.45090       45.21960        1.38380
C          4.08580       44.94260        1.59580
N          2.96220       44.74620        1.76560
C          8.36940       47.38390        0.85890
C          8.00220       48.68410        0.82010
N          8.81440       49.78190        0.61710
C         10.19520       49.84390        0.39250
S         11.26590       48.60550        0.32180
C         10.51150       51.23940        0.22990
C          9.38070       51.98650        0.35020
C          8.27180       51.07110        0.60150
S          6.69750       51.44510        0.82450
C          9.18120       53.41560        0.26500
C         10.14250       54.30780        0.02680
H        -10.99220        0.11790      -16.58810
H         -9.13030        1.16150      -15.01790
H        -12.81570        1.98920      -17.12320
H        -10.83970        5.82380      -14.49690
H         -7.12780        4.97550      -12.41380
H         -9.83180        7.84210      -13.12660
H         -7.15470        7.11800      -11.75980
H         -8.68500       12.14420      -10.89670
H         -5.15480       10.95920       -9.40070
H         -7.09470       13.35420       -9.56580
H         -6.24530       15.48800       -8.30310
H         -3.54590       12.09240       -8.22180
H         -1.96490       16.27900       -5.87730
H         -4.73720       19.62140       -5.88800
H         -1.10620       18.47470       -4.65850
H         -3.26220       20.69160       -4.63520
H          1.28340       22.19010       -2.31460
H         -1.82630       24.73020       -2.25430
H          1.18230       24.52880       -1.59580
H          2.18620       26.81650       -0.72420
H         -2.10810       26.77700       -1.34830
H         -0.12390       31.13710        0.18220
H          4.19380       31.23510        0.62700
H          0.88310       33.48220        0.81990
H          3.97540       33.47400        0.85410
H          1.82970       38.28840        1.61240
H          5.81400       38.04530        1.20970
H          3.47230       40.02710        1.54940
H          4.20350       42.54000        1.53780
H          7.43950       39.67180        1.18340
H          8.72390       44.55210        0.95470
H          5.45670       47.39220        1.29760
H          9.40780       47.10100        0.72660
H          6.96320       48.98190        0.95220
H         11.51810       51.57800        0.04190
H          8.15180       53.73560        0.41180
H         11.17570       54.02510       -0.12530
H          9.92850       55.36580       -0.02610
