178
630_224_01010101.out	Energy:   -5170.7030238
C          7.80250       23.91670       -2.37110
C          7.29240       24.67890       -1.37150
C          6.50810       23.83380       -0.49610
C          6.59220       22.47770       -1.06780
C          7.37000       22.54730       -2.18830
C          5.97730       21.32030       -0.55520
N          5.47570       20.36380       -0.14940
C          5.82200       24.20240        0.63790
C          5.06110       23.36450        1.50070
C          4.52820       24.12470        2.53540
C          4.96040       25.50500        2.33290
C          5.72750       25.56580        1.21320
C          6.32490       26.73340        0.69530
N          6.79960       27.70540        0.29700
C          3.73680       23.62300        3.58780
C          3.16480       24.38550        4.58300
C          2.39300       23.89370        5.64900
C          1.47640       24.65100        6.38300
C          0.73510       23.78160        7.20780
C         -0.29220       24.15820        8.09450
N         -1.13310       24.46080        8.82310
C          1.19770       22.45890        7.01060
C          2.24190       22.48580        6.08890
C          3.13380       21.42090        5.81030
C          2.82180       19.97310        5.84280
C          4.06680       19.28720        5.79620
C          5.08230       20.22500        5.66130
C          4.50910       21.53230        5.65920
C          6.46370       19.95540        5.55180
N          7.59280       19.74460        5.46340
C          1.59530       19.34820        5.73090
C          0.37560       19.97130        5.42340
C         -0.84590       19.33090        5.36210
C         -2.07770       19.95660        4.98970
C         -3.09280       19.02700        5.02840
C         -2.48200       17.74160        5.45420
C         -1.15070       17.94070        5.65420
C         -3.16570       16.52320        5.63690
N         -3.70660       15.51680        5.79340
C         -4.46650       19.21680        4.71470
C         -5.46160       18.26930        4.63070
C         -6.69390       18.90470        4.26160
C         -6.40900       20.32490        4.13330
C         -5.08920       20.52550        4.39270
C         -4.43140       21.77230        4.36890
N         -3.91110       22.80080        4.34060
C         -7.89080       18.26150        4.04350
C         -9.08100       18.91440        3.65850
C        -10.26530       18.28600        3.36950
C        -10.57990       16.88830        3.48030
C        -11.91200       16.72350        3.19780
C        -12.62370       15.50520        3.18410
N        -13.19120       14.50260        3.16200
C        -12.49260       18.02070        2.88580
C        -11.51600       18.96910        2.96970
C        -11.61350       20.38340        2.70440
C        -12.75130       21.24400        3.09350
C        -12.44080       22.56960        2.62910
C        -11.21580       22.53340        2.01500
C        -10.70150       21.17390        2.06830
C        -10.53150       23.61200        1.41650
N         -9.96400       24.48580        0.92440
C        -13.83970       20.83450        3.81710
C        -14.90820       21.66680        4.22110
C        -16.03650       21.19950        4.85150
C        -16.37840       19.83650        5.15370
C        -17.61640       19.79990        5.74420
C        -18.09280       21.20360        5.84790
C        -17.14830       22.01810        5.30530
C        -19.32440       21.61510        6.39640
N        -20.33110       21.96250        6.83900
C        -18.35110       18.65340        6.16700
C        -19.53130       18.62040        6.86630
C        -19.93160       17.25270        7.05780
C        -18.91630       16.42930        6.42370
C        -17.96360       17.24510        5.89690
C        -16.81010       16.83740        5.19690
N        -15.86630       16.50520        4.62340
C        -21.04670       16.78510        7.71260
C        -21.97320       17.63180        8.36050
C        -23.09010       17.22020        9.03900
C        -23.65740       15.90260        9.11220
C        -24.85810       15.98950        9.77160
C        -25.74750       14.93210       10.05750
N        -26.47220       14.07120       10.30560
C        -25.08390       17.37030       10.16450
C        -24.02540       18.12410        9.74580
C        -23.77960       19.52290        9.97710
C        -24.81900       20.57530        9.99930
C        -24.15520       21.80120       10.33270
C        -22.81390       21.53860       10.47910
C        -22.58440       20.12280       10.25750
C        -21.79800       22.46180       10.80170
N        -20.96140       23.20730       11.07140
C        -26.13770       20.38850        9.66020
C        -27.13160       21.38360        9.70710
C        -28.45660       21.15730        9.39230
C        -29.06610       19.94370        8.95280
C        -30.42280       20.14940        8.77690
C        -30.69030       21.56820        9.12040
C        -29.51430       22.15170        9.47650
C        -31.94520       22.20830        9.07870
N        -32.96290       22.75010        9.05450
C        -31.39360       19.21040        8.35850
C        -32.76460       19.39230        8.25080
C        -33.36170       18.18800        7.80060
C        -32.29350       17.22220        7.61570
C        -31.11170       17.81190        7.94850
C        -29.84080       17.20720        7.89960
N        -28.80380       16.70380        7.85280
C        -34.71140       17.92970        7.55290
C        -35.73540       18.82700        7.81930
C        -37.10000       18.62170        7.58120
C        -38.11650       19.28740        8.26840
C        -39.35120       18.65010        7.98370
C        -40.60520       19.03620        8.50750
N        -41.62690       19.35020        8.93680
C        -39.12670       17.59170        7.10420
C        -37.74920       17.56990        6.76020
C        -37.18880       16.87810        5.70120
C        -37.74170       15.68570        5.02720
C        -36.96860       15.43620        3.93370
C        -35.92550       16.44920        3.85450
C        -36.04370       17.28790        4.93540
C        -34.97110       16.53250        2.82220
N        -34.18780       16.59570        1.97880
C        -38.82080       14.86360        5.53910
C        -39.54510       14.02790        4.79420
H          8.43100       24.24890       -3.18350
H          7.43510       25.73740       -1.22990
H          7.62860       21.72710       -2.84050
H          4.92400       22.30290        1.37410
H          4.70700       26.33390        2.97600
H          3.55170       22.55330        3.57310
H          3.24290       25.46800        4.51510
H          1.31420       25.71330        6.28840
H          0.86780       21.59990        7.57360
H          4.18560       18.21500        5.79240
H          5.07770       22.44890        5.64780
H          1.59610       18.26400        5.81640
H          0.38950       21.02880        5.17750
H         -2.16290       20.99520        4.71520
H         -0.43540       17.19900        5.97310
H         -5.35890       17.20910        4.79540
H         -7.12810       21.08510        3.87170
H         -7.91190       17.18170        4.15950
H         -9.05080       19.99750        3.58360
H         -9.88730       16.11060        3.76010
H        -13.51830       18.15510        2.58000
H        -13.06580       23.43930        2.75460
H         -9.77390       20.86900        1.60980
H        -13.89020       19.78940        4.10730
H        -14.83870       22.73100        4.01590
H        -15.75250       18.98750        4.93570
H        -17.19140       23.09270        5.21890
H        -20.08040       19.47500        7.22460
H        -18.93470       15.35090        6.39340
H        -21.20950       15.71200        7.75310
H        -21.77430       18.69860        8.32280
H        -23.22770       15.01110        8.68390
H        -25.92940       17.69170       10.75220
H        -24.62680       22.76700       10.42030
H        -21.62280       19.64870       10.37600
H        -26.44080       19.39670        9.33830
H        -26.84940       22.38180       10.02890
H        -28.54320       19.01560        8.79280
H        -29.36610       23.17680        9.77900
H        -33.29830       20.30090        8.47500
H        -32.43690       16.20950        7.27220
H        -34.96490       16.94660        7.16700
H        -35.48320       19.74150        8.35070
H        -37.98300       20.10300        8.96220
H        -39.89860       16.98890        6.65390
H        -37.06330       14.61750        3.23760
H        -35.46430       18.17950        5.11230
H        -39.01720       14.94050        6.60470
H        -39.39910       13.92630        3.72720
H        -40.32680       13.41910        5.22610
