150
630_440_01010101.out	Energy:   -7896.9587150
C         -6.84820       29.20320      -31.51710
C         -7.74220       30.18160      -31.29010
C         -8.35400       29.94090      -29.97800
C         -7.71460       28.71560      -29.46540
C         -6.83200       28.30020      -30.39020
C         -7.92990       28.04550      -28.23850
N         -8.09560       27.48790      -27.23210
C         -9.30700       30.70560      -29.40400
C         -9.92940       30.45890      -28.10500
C        -10.84910       31.41730      -27.88700
C        -10.84920       32.33050      -29.01000
C         -9.94620       31.92690      -29.91510
C         -9.70530       32.61670      -31.11640
N         -9.51850       33.20010      -32.11340
C        -11.65210       31.47530      -26.70470
C        -12.99330       31.47100      -26.72710
C        -13.75540       31.49600      -25.52520
S        -13.15580       30.77380      -24.07710
C        -14.53670       31.20630      -23.17040
C        -15.44580       31.86740      -23.95990
C        -15.01640       32.01740      -25.30120
O        -15.70510       32.66830      -26.27100
C        -16.97190       33.08320      -26.02380
O        -17.51280       33.99190      -26.63940
C        -17.78240       32.24790      -25.02340
O        -18.75530       31.56640      -25.26880
S        -17.01760       32.46910      -23.48260
C        -14.58250       30.83970      -21.80740
C        -15.04950       29.63100      -21.47150
C        -15.06810       29.17600      -20.11610
C        -14.40030       28.08120      -19.70830
C        -14.62910       27.92070      -18.27300
C        -15.51920       29.02390      -17.88170
C        -15.75760       29.75780      -18.97990
C        -16.08170       29.31810      -16.61850
N        -16.54930       29.56900      -15.58630
C        -14.09520       26.94460      -17.51630
C        -14.31360       26.79080      -16.08570
C        -13.59380       25.73760      -15.66370
C        -12.92460       25.13980      -16.80220
C        -13.19800       25.85010      -17.90640
C        -12.66500       25.52890      -19.17280
N        -12.21050       25.25440      -20.20500
C        -13.59730       25.30380      -14.30480
C        -12.57360       24.63880      -13.75620
C        -12.61640       24.23300      -12.40190
S        -11.14050       24.09230      -11.54290
C        -11.92570       23.58910      -10.09850
C        -13.29510       23.56680      -10.27850
C        -13.68420       23.91200      -11.58940
O        -14.96300       23.98200      -12.03400
C        -15.97970       23.55660      -11.25350
O        -17.13370       23.93890      -11.38340
C        -15.64090       22.43680      -10.27140
O        -16.02950       21.28860      -10.31320
S        -14.55740       23.15310       -9.12530
C        -11.09820       23.27390       -8.99440
C        -11.46680       22.33100       -8.12390
C        -10.70080       22.01460       -6.97040
C        -11.20340       22.14160       -5.72990
C        -10.17690       21.71500       -4.79470
C         -9.00910       21.33710       -5.61320
C         -9.34300       21.52500       -6.89800
C         -7.74210       20.85760       -5.21350
N         -6.69970       20.46330       -4.88940
C        -10.33560       21.67970       -3.46140
C         -9.31580       21.21980       -2.54740
C         -9.79890       21.28140       -1.29490
C        -11.15200       21.80230       -1.35170
C        -11.48590       22.04300       -2.62970
C        -12.74190       22.55570       -3.01840
N        -13.77610       22.97660       -3.33350
C         -9.06870       20.88750       -0.13020
C         -7.82320       20.39760       -0.17340
C         -7.13810       20.03520        1.00090
S         -5.45120       20.24010        1.02480
C         -5.30390       19.64210        2.63540
C         -6.55110       19.31460        3.12840
C         -7.58830       19.52090        2.19260
O         -8.90490       19.29660        2.40330
C         -9.31390       18.67370        3.52620
O        -10.45380       18.76650        3.95850
C         -8.31720       17.69200        4.15020
O         -8.44660       16.48740        4.21840
S         -6.96310       18.64010        4.69130
C         -4.02110       19.58880        3.23920
C         -2.92340       19.34860        2.50590
C         -1.60910       19.35930        3.05380
C         -1.08080       20.41560        3.70020
C          0.27110       20.05830        4.10040
C          0.49750       18.69480        3.59470
C         -0.62240       18.30560        2.96990
C          1.64170       17.87310        3.70270
N          2.58170       17.19620        3.78770
C          1.09400       20.85140        4.80690
C          2.42690       20.46490        5.22610
C          2.94410       21.45960        5.96400
C          1.99580       22.56020        5.98590
C          0.88450       22.21090        5.31870
C         -0.23450       23.06120        5.17490
N         -1.15210       23.76430        5.06990
C          4.26870       21.44910        6.50210
C          4.94790       20.34450        6.85740
C          6.28370       20.40020        7.34890
S          7.11600       21.89110        7.48330
C          8.53220       21.20030        8.15250
C          8.38790       19.82590        8.18860
C          7.11120       19.37150        7.75450
O          6.68760       18.08320        7.76830
C          7.56370       17.08920        8.04940
O          7.22150       15.98850        8.46010
C          9.02850       17.34540        7.67630
O          9.67530       16.74750        6.84120
S          9.57430       18.64070        8.69670
C          9.62870       22.04750        8.49300
C          9.46140       23.32170        8.88160
H         -6.26520       29.11190      -32.36370
H         -7.95990       30.96420      -31.92660
H         -6.23380       27.46330      -30.30750
H         -9.70260       29.68240      -27.46430
H        -11.45140       33.16380      -29.10000
H        -11.17650       31.52280      -25.79000
H        -13.48310       31.44910      -27.63520
H        -14.25980       31.49570      -21.07900
H        -15.40700       29.00870      -22.21320
H        -13.82720       27.46340      -20.30390
H        -16.34270       30.60720      -19.01140
H        -14.91650       27.38710      -15.49750
H        -12.32940       24.29740      -16.76820
H        -14.42260       25.51120      -13.72100
H        -11.74300       24.41950      -14.32810
H        -10.20580       23.77500       -8.86160
H        -12.34210       21.81200       -8.29580
H        -12.14720       22.48060       -5.48630
H         -8.72760       21.34790       -7.70740
H         -8.37200       20.89730       -2.81250
H        -11.76320       21.96300       -0.53580
H         -9.52480       20.98570        0.79030
H         -7.35620       20.28360       -1.08670
H         -3.93100       19.73680        4.25650
H         -3.03670       19.14720        1.50010
H         -1.55070       21.31680        3.87950
H         -0.75920       17.39590        2.50200
H          2.89810       19.57590        4.99630
H          2.15260       23.47130        6.44450
H          4.73940       22.35890        6.62720
H          4.48610       19.42560        6.77130
H         10.58620       21.66650        8.43860
H          8.51220       23.72210        8.94270
H         10.28190       23.90070        9.11910
