170
630_893_01010101.out	Energy:   -7515.5522273
C        -38.21570       39.01540        1.43160
C        -37.32590       38.94460        0.41620
C        -36.42250       37.83110        0.66280
C        -36.87090       37.23190        1.93790
C        -37.94000       37.95060        2.38010
C        -36.31030       36.10480        2.56970
N        -35.87350       35.17640        3.09600
C        -35.37500       37.42180       -0.11190
C        -34.46320       36.33690        0.15400
C        -33.55780       36.24840       -0.87220
C        -33.87300       37.29380       -1.84490
C        -34.94410       38.00260       -1.40440
C        -35.54070       39.09340       -2.06900
N        -36.00680       39.98400       -2.63320
C        -32.47510       35.32350       -1.04280
C        -32.10040       34.42280       -0.10830
C        -30.97520       33.51590       -0.20790
C        -30.54770       32.81300       -1.35820
C        -31.30140       32.77730       -2.64530
O        -32.38560       33.22940       -2.85780
S        -30.36650       31.89210       -3.86300
C        -29.05840       31.50460       -2.73220
O        -28.04560       30.96800       -3.06610
C        -29.40510       32.00210       -1.36880
C        -28.61780       31.77650       -0.21520
C        -29.05440       32.48000        0.92110
C        -30.17610       33.29510        0.92670
C        -30.30340       33.87100        2.29460
O        -31.10300       34.63480        2.72750
O        -29.26670       33.35250        3.03620
C        -28.47470       32.51070        2.29330
O        -27.52100       31.95120        2.72890
C        -27.45990       30.91520       -0.10220
C        -27.28810       29.72020       -0.71140
C        -26.13580       28.89190       -0.53410
C        -25.90770       27.69830       -1.17550
C        -24.62550       27.18590       -0.78030
C        -24.08030       28.16640        0.18630
C        -24.98180       29.17310        0.32120
C        -22.83280       28.08420        0.83930
N        -21.81410       28.04140        1.37680
C        -24.00580       26.04600       -1.22680
C        -22.70750       25.55750       -0.85430
C        -22.42660       24.42550       -1.57990
C        -23.57250       24.14700       -2.44400
C        -24.52390       25.09420       -2.23590
C        -25.78180       25.15740       -2.86880
N        -26.80950       25.18380       -3.39040
C        -21.23110       23.63520       -1.57240
C        -20.25100       23.77590       -0.65330
C        -19.02830       23.00140       -0.57700
C        -18.19670       22.61580       -1.65330
C        -18.41260       23.03050       -3.07030
O        -19.24610       23.77870       -3.48330
S        -17.19550       22.27000       -4.11020
C        -16.37410       21.47640       -2.75550
O        -15.46290       20.71830       -2.89660
C        -17.02550       21.86860       -1.47200
C        -16.57000       21.45830       -0.19830
C        -17.42020       21.82330        0.85900
C        -18.57400       22.57070        0.68060
C        -19.19300       22.76440        2.02160
O        -20.19430       23.32760        2.32190
O        -18.36960       22.13610        2.92770
C        -17.28570       21.55180        2.31770
O        -16.44230       20.95490        2.90460
C        -15.34410       20.74630        0.10020
C        -14.14030       20.97690       -0.46940
C        -12.93430       20.31100       -0.08360
C        -11.67390       20.60910       -0.54200
C        -10.72510       19.72230        0.07200
C        -11.51630       18.83330        0.95300
C        -12.82100       19.19860        0.86000
C        -11.00600       17.80070        1.76660
N        -10.60960       16.95450        2.44150
C         -9.36360       19.70370       -0.09570
C         -8.42390       18.79340        0.49660
C         -7.15320       19.13080        0.09820
C         -7.24930       20.29650       -0.78050
C         -8.55720       20.63950       -0.91190
C         -9.05830       21.71390       -1.67550
N         -9.45070       22.59800       -2.30240
C         -5.95970       18.44460        0.48510
C         -4.70770       18.85910        0.18950
C         -3.49290       18.21900        0.65220
C         -3.25850       16.82840        0.75200
C         -4.17590       15.78660        0.20410
O         -5.14790       15.96610       -0.46490
S         -3.58070       14.17630        0.64210
C         -2.13280       14.81030        1.44390
O         -1.36020       14.11950        2.03600
C         -2.08560       16.29540        1.30090
C         -1.02260       17.10690        1.76160
C         -1.26130       18.48630        1.64010
C         -2.42440       19.01350        1.09910
C         -2.30210       20.49710        1.13720
O         -3.06860       21.33210        0.78080
O         -1.07320       20.77580        1.68740
C         -0.38630       19.63050        2.01710
O          0.69490       19.63040        2.50950
C          0.23310       16.65330        2.32330
C          0.96030       15.60000        1.88850
C          2.19700       15.18200        2.47250
C          2.97180       14.13630        2.03220
C          4.08750       13.96690        2.92120
C          3.94370       15.01900        3.95290
C          2.82560       15.73690        3.67180
C          4.80960       15.23510        5.04500
N          5.49720       15.42400        5.95060
C          5.06640       13.00760        2.85910
C          6.12720       12.78060        3.80080
C          6.84710       11.67770        3.41060
C          6.26650       11.17690        2.16520
C          5.20910       11.95800        1.82410
C          4.40310       11.80630        0.67770
N          3.76260       11.67210       -0.27150
C          7.94910       11.04210        4.07030
C          8.52530       11.51520        5.19690
C          9.64700       10.91540        5.89280
C          9.85680        9.53770        6.12440
C          8.87280        8.46060        5.81340
O          7.78910        8.58950        5.32870
S          9.52080        6.88950        6.32080
C         11.01730        7.58730        6.96420
O         11.88280        6.94160        7.47310
C         10.99750        9.06550        6.78240
C         12.01180        9.90710        7.28300
C         11.77870       11.27500        7.08330
C         10.64920       11.74550        6.42170
C         10.76370       13.22660        6.32790
O         10.02580       14.01620        5.83500
O         11.95140       13.56610        6.92880
C         12.62500       12.46580        7.40360
O         13.68160       12.53600        7.93940
C         13.20170        9.37670        7.94640
C         13.72930        9.87360        9.06030
H        -39.01370       39.73320        1.54750
H        -37.26700       39.59480       -0.44090
H        -38.50370       37.77220        3.28320
H        -34.50810       35.70980        1.02920
H        -33.32400       37.45580       -2.76010
H        -31.92860       35.40260       -1.97630
H        -32.59220       34.42640        0.85970
H        -26.72430       31.24900        0.62280
H        -28.05040       29.32540       -1.37400
H        -26.57130       27.22160       -1.87830
H        -24.87550       30.04080        0.95380
H        -22.06210       26.03430       -0.13530
H        -23.63100       23.31170       -3.12520
H        -21.15360       22.87840       -2.34550
H        -20.40280       24.45310        0.18220
H        -15.41390       20.06350        0.94120
H        -14.03540       21.73130       -1.24190
H        -11.42500       21.38080       -1.25210
H        -13.64720       18.74570        1.38590
H         -8.68520       17.97420        1.14620
H         -6.41100       20.79050       -1.24710
H         -6.10870       17.55430        1.08720
H         -4.55990       19.80380       -0.32400
H          0.63690       17.29700        3.09870
H          0.62020       15.01370        1.04150
H          2.77040       13.51890        1.17210
H          2.44820       16.57450        4.23780
H          6.29580       13.37910        4.68090
H          6.63770       10.32000        1.62390
H          8.32380       10.13780        3.60330
H          8.20600       12.47330        5.59570
H         13.62860        8.48830        7.49300
H         13.30940       10.72080        9.58300
H         14.60340        9.42440        9.50980
