314
630_104_01010101.out	Energy:   -7485.3882196
C        -34.13870        5.91530      -13.68010
C        -33.41380        5.55510      -14.76770
C        -32.14980        6.26590      -14.74320
C        -32.18490        7.09550      -13.52600
C        -33.38120        6.87170      -12.90450
C        -31.17360        7.96510      -13.07780
N        -30.35830        8.68320      -12.68880
C        -31.12840        6.19120      -15.65430
C        -29.88200        6.89460      -15.62680
C        -29.13210        6.54090      -16.72510
C        -29.90880        5.57360      -17.50150
C        -31.09580        5.35490      -16.88030
C        -32.10990        4.48610      -17.32930
N        -32.91730        3.76390      -17.72490
C        -27.83030        6.98530      -17.11150
C        -27.09730        7.87760      -16.39900
C        -25.77980        8.36810      -16.72440
C        -25.18070        9.28740      -15.84320
C        -23.91500        9.77690      -16.11770
C        -23.22140        9.35170      -17.28540
C        -23.80930        8.44760      -18.16010
C        -25.07620        7.96470      -17.87690
C        -21.93620       10.01700      -17.29280
C        -21.88760       10.84930      -16.09530
C        -23.07630       10.70960      -15.39190
C        -23.47850       11.35710      -14.10480
C        -22.57770       10.90650      -12.94070
N        -22.73900        9.47260      -12.72560
C        -23.47870       12.89270      -14.21290
N        -23.99440       13.45310      -12.96760
C        -20.71850       11.61650      -15.83860
C        -19.68650       11.54680      -16.72760
C        -19.73600       10.71650      -17.92570
C        -20.90300        9.94770      -18.18210
C        -18.54130       10.84890      -18.62280
C        -18.13890       10.18210      -19.90080
C        -18.12500        8.64840      -19.74130
N        -17.26630        8.06900      -20.76560
C        -19.05580       10.63250      -21.05400
N        -18.50770       10.18610      -22.33280
C        -17.69570       11.76790      -17.88800
C        -18.39430       12.19960      -16.72710
C        -17.80190       13.09260      -15.84570
C        -16.52310       13.55020      -16.11640
C        -15.80930       13.13320      -17.25780
C        -16.41450       12.23040      -18.14810
C        -14.46830       13.62680      -17.49610
C        -13.80790       14.61410      -16.80300
C        -12.48850       14.77330      -17.33390
C        -12.37860       13.80060      -18.43930
C        -13.56130       13.13040      -18.52550
C        -11.25750       13.59710      -19.26630
N        -10.35400       13.41080      -19.95920
C        -11.50210       15.62620      -16.89070
C        -10.15980       15.73250      -17.36400
C         -9.47870       16.65850      -16.60160
C        -10.41150       17.19300      -15.61340
C        -11.61990       16.59060      -15.77200
C        -12.77220       16.85010      -15.00520
N        -13.69910       17.08910      -14.36140
C         -8.10610       17.04850      -16.66030
C         -7.21590       16.57520      -17.56850
C         -5.80400       16.87300      -17.61720
C         -5.03690       16.29610      -18.64560
C         -3.66810       16.50770      -18.68120
C         -3.03850       17.29630      -17.67780
C         -3.79510       17.88970      -16.67590
C         -5.16330       17.67910      -16.65410
C         -1.61470       17.26930      -17.93290
C         -1.41850       16.45820      -19.13060
C         -2.65220       16.01090      -19.58670
C         -2.94540       15.14730      -20.77380
C         -2.39150       15.76170      -22.07290
N         -3.12810       15.22160      -23.20980
C         -2.40890       13.72200      -20.55130
N         -3.11630       13.12430      -19.42520
C         -0.09650       16.22380      -19.59820
C          0.94530       16.74800      -18.88950
C          0.74670       17.54760      -17.68760
C         -0.57340       17.80600      -17.23270
C          1.97940       17.90450      -17.15570
C          2.18640       18.75180      -15.93730
C          3.10670       18.10080      -14.87660
N          4.50650       18.47670      -15.04140
C          2.68770       20.14780      -16.35230
N          1.64880       20.79790      -17.14410
C          3.00630       17.32920      -18.00280
C          2.37660       16.63040      -19.07330
C          3.13960       15.97520      -20.02990
C          4.52040       15.96260      -19.89800
C          5.15610       16.59790      -18.81630
C          4.38490       17.32090      -17.89030
C          6.57200       16.43070      -18.57170
C          7.19470       16.56750      -17.35290
C          8.55550       16.14980      -17.46320
C          8.75870       15.80670      -18.88760
C          7.56770       15.96660      -19.52990
C          9.96810       15.39500      -19.47870
N         10.94860       15.05760      -19.98450
C          9.45330       15.96070      -16.43500
C         10.73840       15.34780      -16.50630
C         11.24530       15.19670      -15.23140
C         10.28370       15.77660      -14.30110
C          9.20780       16.23300      -15.00010
C          8.06100       16.83050      -14.44490
N          7.12760       17.30490      -13.95890
C         12.42140       14.50100      -14.81190
C         13.25800       13.86380      -15.66920
C         14.34930       12.98540      -15.32280
C         14.99340       12.29950      -16.36880
C         15.94730       11.34030      -16.07530
C         16.28300       11.05280      -14.72260
C         15.69010       11.76640      -13.68930
C         14.73410       12.72250      -13.99290
C         17.21330        9.94290      -14.73440
C         17.42940        9.59260      -16.13470
C         16.68740       10.44470      -16.94050
C         16.59810       10.47440      -18.43570
C         17.97350       10.70870      -19.08020
N         18.55150       11.94130      -18.55360
C         15.94860        9.18940      -18.97820
N         14.57750        9.11570      -18.48680
C         18.25090        8.47530      -16.44600
C         18.78640        7.75640      -15.41860
C         18.58230        8.11220      -14.01910
C         17.77950        9.24330      -13.70790
C         19.21140        7.17030      -13.21360
C         19.27710        7.12240      -11.71910
C         19.83870        8.43030      -11.13160
N         20.37010        8.16730       -9.79920
C         17.89480        6.78710      -11.13060
N         17.50960        5.45070      -11.56870
C         19.79740        6.16440      -14.07710
C         19.55550        6.52990      -15.42980
C         19.98750        5.71490      -16.46620
C         20.61590        4.52010      -16.15630
C         20.83100        4.12120      -14.82320
C         20.43910        4.97130      -13.77730
C         21.38550        2.81130      -14.54440
C         21.37330        1.72440      -15.38400
C         21.92850        0.59130      -14.70690
C         22.33430        1.07860      -13.37290
C         21.99410        2.39560      -13.28700
C         22.96130        0.32050      -12.36600
N         23.47760       -0.28060      -11.52760
C         21.99440       -0.70440      -15.16730
C         22.45360       -1.86560      -14.47440
C         22.25490       -2.97920      -15.26330
C         21.67180       -2.53160      -16.52560
C         21.51950       -1.18130      -16.48690
C         21.00000       -0.39280      -17.53220
N         20.57120        0.21870      -18.41140
C         22.54010       -4.33140      -14.90540
C         22.18510       -5.40610      -15.65300
C         22.41350       -6.79260      -15.31900
C         23.23520       -7.18690      -14.24840
C         23.40190       -8.53590      -13.98130
C         22.74600       -9.51580      -14.77680
C         21.93740       -9.13200      -15.83750
C         21.78290       -7.78090      -16.10170
C         23.12310      -10.81370      -14.26040
C         24.03300      -10.57730      -13.14400
C         24.19210       -9.21160      -12.96690
C         25.03450       -8.44620      -11.99100
C         25.15350       -9.07810      -10.59640
N         23.87280       -9.63610      -10.17200
C         26.44510       -8.22560      -12.57790
N         26.35450       -7.38960      -13.76900
C         24.57430      -11.70160      -12.45710
C         24.21290      -12.95000      -12.86240
C         23.28950      -13.18310      -13.96520
C         22.75640      -12.06590      -14.66130
C         23.10410      -14.55170      -14.12550
C         22.23180      -15.25590      -15.11850
C         20.76030      -14.82470      -14.96980
N         19.89710      -15.83710      -15.56740
C         22.74340      -15.03250      -16.55180
N         24.07520      -15.61540      -16.67160
C         23.91240      -15.23090      -13.13600
C         24.59580      -14.25870      -12.35750
C         25.44510      -14.64170      -11.33310
C         25.61570      -16.00090      -11.08410
C         24.94980      -16.95790      -11.84570
C         24.09450      -16.58650      -12.87520
H        -35.12300        5.56270      -13.41100
H        -33.70550        4.85910      -15.53670
H        -33.71950        7.32660      -11.98570
H        -29.59670        7.58950      -14.85450
H        -29.56890        5.11970      -18.42040
H        -27.43930        6.56150      -18.03170
H        -27.52140        8.27890      -15.48180
H        -25.71970        9.59870      -14.95470
H        -23.28910        8.11850      -19.05300
H        -25.53100        7.25840      -18.56210
H        -24.50450       11.04730      -13.86370
H        -22.85300       11.48510      -12.04500
H        -21.52690       11.10330      -13.17330
H        -23.69590        9.28670      -12.44310
H        -22.12990        9.19030      -11.96540
H        -24.08940       13.19890      -15.07600
H        -22.46170       13.26750      -14.35880
H        -24.98480       13.24670      -12.89390
H        -23.88260       14.46030      -12.98880
H        -20.64700       12.23820      -14.95350
H        -20.96820        9.31830      -19.06260
H        -17.11470       10.48800      -20.15130
H        -19.15010        8.24900      -19.79800
H        -17.71260        8.39280      -18.75950
H        -17.65600        8.30410      -21.67580
H        -17.27110        7.05990      -20.66480
H        -19.15540       11.72890      -21.02930
H        -20.05250       10.19550      -20.93860
H        -17.64610       10.68950      -22.51430
H        -19.16680       10.41490      -23.06800
H        -18.32380       13.42830      -14.95640
H        -16.05760       14.24010      -15.42250
H        -15.88560       11.90410      -19.03590
H        -14.19860       15.19240      -15.98270
H        -13.78840       12.34730      -19.23250
H         -9.75330       15.15110      -18.17500
H        -10.15810       17.94620      -14.88250
H         -7.78830       17.75660      -15.90040
H         -7.56830       15.88560      -18.33140
H         -5.52450       15.67690      -19.39080
H         -3.32630       18.50050      -15.91210
H         -5.74730       18.13450      -15.86260
H         -4.03360       15.06910      -20.89050
H         -1.31140       15.56850      -22.16560
H         -2.54700       16.84470      -22.05310
H         -2.90180       14.24000      -23.32650
H         -2.84470       15.71310      -24.04980
H         -1.32120       13.74660      -20.37840
H         -2.60510       13.11390      -21.44000
H         -2.89230       13.64270      -18.58190
H         -2.79960       12.16880      -19.30500
H          0.07810       15.62470      -20.48500
H         -0.73990       18.40100      -16.34110
H          1.20500       18.89760      -15.46680
H          3.03310       17.01210      -14.95660
H          2.74420       18.39670      -13.88060
H          5.09240       17.85570      -14.48970
H          4.65320       19.41770      -14.69440
H          3.62990       20.06170      -16.91290
H          2.86310       20.75210      -15.45660
H          1.52510       20.28280      -18.01010
H          1.95260       21.73700      -17.37590
H          2.66800       15.45650      -20.85760
H          5.11540       15.41630      -20.62120
H          4.87160       17.85390      -17.08270
H          6.72500       16.86240      -16.43010
H          7.38630       15.80060      -20.58100
H         11.20190       15.01780      -17.42130
H         10.41800       15.81500      -13.23030
H         12.58520       14.44780      -13.73950
H         13.06540       13.95000      -16.73580
H         14.70670       12.50480      -17.39460
H         15.95100       11.56890      -12.65510
H         14.25960       13.26340      -13.18180
H         15.94650       11.30910      -18.72560
H         17.85370       10.75840      -20.17460
H         18.65420        9.88460      -18.84690
H         17.94150       12.71840      -18.78520
H         19.44520       12.09930      -19.00630
H         16.53270        8.30560      -18.67910
H         15.92010        9.23240      -20.07180
H         14.59450        9.00810      -17.47770
H         14.12750        8.29970      -18.88600
H         18.42040        8.18150      -17.47570
H         17.59360        9.52210      -12.67650
H         19.95920        6.31530      -11.42350
H         19.06340        9.21170      -11.10730
H         20.66230        8.78150      -11.76070
H         19.60630        7.97550       -9.16010
H         20.85690        8.99320       -9.47000
H         17.15580        7.54320      -11.44010
H         17.95260        6.78490      -10.03760
H         17.38950        5.45520      -12.57650
H         16.62220        5.20620      -11.14380
H         19.82240        5.99260      -17.50140
H         20.94880        3.87450      -16.96080
H         20.59090        4.67060      -12.74710
H         20.96400        1.69340      -16.37980
H         22.16560        3.04070      -12.43870
H         22.86550       -1.86530      -13.47840
H         21.41660       -3.17340      -17.35510
H         23.04330       -4.46880      -13.95270
H         21.64510       -5.24120      -16.58200
H         23.75480       -6.44380      -13.65460
H         21.43680       -9.87040      -16.45430
H         21.15380       -7.46890      -16.92880
H         24.58020       -7.45320      -11.87310
H         25.50150       -8.30320       -9.89410
H         25.89670       -9.88210      -10.59780
H         23.17210       -8.90250      -10.18200
H         23.96520       -9.97000       -9.21900
H         26.91230       -9.19770      -12.79850
H         27.05920       -7.70110      -11.83900
H         25.95650       -7.93260      -14.52800
H         27.28640       -7.09920      -14.04170
H         25.25740      -11.56430      -11.62840
H         22.07440      -12.20430      -15.49310
H         22.27510      -16.33470      -14.92280
H         20.59720      -13.83640      -15.42680
H         20.51410      -14.75660      -13.90570
H         19.99610      -15.81590      -16.57640
H         18.93280      -15.62200      -15.34070
H         22.75110      -13.95780      -16.79320
H         22.08270      -15.54120      -17.26100
H         24.70390      -15.12890      -16.04020
H         24.40980      -15.48050      -17.61920
H         25.96910      -13.90430      -10.73490
H         26.27730      -16.31980      -10.28610
H         25.10250      -18.00980      -11.63070
H         23.58460      -17.34350      -13.46030
