162
630_1181_01010101.out	Energy:   -7309.0438377
C         -4.09360       -0.37550       -3.71670
C         -3.81920        0.63230       -4.59140
C         -4.82030        1.65730       -4.44290
C         -5.73450        1.18240       -3.39320
C         -5.28700       -0.04450       -2.97650
C         -6.86850        1.84590       -2.89330
N         -7.79910        2.37440       -2.45630
C         -4.91540        2.85760       -5.13050
C         -5.87990        3.86300       -4.92530
C         -5.63730        4.94110       -5.79220
C         -4.47570        4.58430       -6.59370
C         -4.03030        3.35520       -6.20740
C         -2.92730        2.67410       -6.75870
N         -2.02570        2.13770       -7.23790
C         -6.37380        6.13080       -5.87310
C         -7.42340        6.35830       -4.98770
C         -8.33520        7.39510       -4.93720
C         -9.34620        7.36950       -3.95610
C        -10.45930        8.19430       -3.78330
C        -11.29340        7.79210       -2.74100
C        -10.83190        6.65570       -2.08580
S         -9.34170        6.10090       -2.76450
C        -11.36230        5.86850       -1.03550
C        -12.55700        5.93560       -0.32980
C        -12.69750        4.89600        0.58690
C        -11.61770        4.01130        0.60650
S        -10.41510        4.50620       -0.54120
C        -11.49200        2.87090        1.42730
C        -10.46320        1.95730        1.44450
C        -10.42100        0.80430        2.30640
C         -9.31540        0.04830        2.00060
C         -8.58530        0.76190        0.93070
C         -9.27690        1.89130        0.61060
C         -7.34640        0.37700        0.38330
N         -6.31050        0.09120       -0.03660
C         -8.94430       -1.23500        2.50000
C         -8.02320       -2.09530        1.95490
C         -8.02870       -3.32730        2.68970
C         -8.98810       -3.16840        3.76620
C         -9.55280       -1.93060        3.65550
C        -10.54790       -1.40460        4.50210
N        -11.36690       -1.00000        5.20620
C         -7.32090       -4.44190        2.30950
C         -7.34010       -5.70160        2.94440
C         -6.78510       -6.85290        2.45130
C         -6.14690       -7.07640        1.20390
C         -5.52270       -8.26840        0.84900
C         -4.95000       -8.24370       -0.42020
C         -5.13750       -7.03470       -1.07560
S         -6.03970       -5.92840       -0.09540
C         -4.64360       -6.66050       -2.35410
C         -3.75950       -7.38490       -3.14300
C         -3.40410       -6.71700       -4.30920
C         -4.02290       -5.47710       -4.45120
S         -5.05620       -5.14940       -3.09480
C         -3.78420       -4.60440       -5.53550
C         -4.40300       -3.42850       -5.87680
C         -3.96770       -2.60930       -6.97810
C         -4.78410       -1.51310       -7.08530
C         -5.81710       -1.64280       -6.03010
C         -5.56530       -2.77460       -5.30870
C         -6.89430       -0.75800       -5.81930
N         -7.78490       -0.04490       -5.64550
C         -4.66080       -0.42350       -8.00210
C         -5.42200        0.71570       -8.05980
C         -4.92990        1.56650       -9.11180
C         -3.80570        0.87500       -9.71010
C         -3.63280       -0.31280       -9.06420
C         -2.65060       -1.27290       -9.37620
N         -1.84760       -2.04990       -9.66380
C         -5.41790        2.79750       -9.48640
C         -6.53180        3.37840       -8.84570
C         -7.11080        4.58510       -9.12140
C         -8.24180        5.02200       -8.38390
C         -8.96330        6.20400       -8.48370
C        -10.02340        6.28420       -7.57430
C        -10.12120        5.16160       -6.76800
S         -8.89920        3.99970       -7.14430
C        -10.99770        4.82970       -5.70320
C        -12.10710        5.48080       -5.18630
C        -12.67360        4.79830       -4.11010
C        -12.00500        3.61920       -3.78200
S        -10.65970        3.36690       -4.84440
C        -12.34640        2.73900       -2.73480
C        -11.69270        1.59410       -2.34260
C        -12.14780        0.74920       -1.27560
C        -11.29320       -0.32220       -1.14370
C        -10.22580       -0.15080       -2.15440
C        -10.47470        0.99100       -2.85540
C         -9.10790       -0.99370       -2.32170
N         -8.18450       -1.67240       -2.45920
C        -11.39020       -1.40090       -0.22400
C        -10.70000       -2.59650       -0.23340
C        -11.10450       -3.37990        0.88650
C        -12.08910       -2.60490        1.61470
C        -12.28240       -1.42530        0.95470
C        -13.12890       -0.37590        1.35910
N        -13.79960        0.49870        1.70390
C        -10.61550       -4.63850        1.20560
C        -10.93100       -5.34460        2.36750
C        -10.38910       -6.58110        2.66780
C        -10.59650       -7.25690        3.87350
C        -10.04880       -8.49870        4.23960
C        -10.40000       -8.90560        5.50690
C        -11.23790       -7.99040        6.17180
S        -11.56890       -6.61000        5.16310
C        -11.77360       -8.08980        7.45010
C        -11.58550       -9.13940        8.38540
C        -12.24670       -8.95200        9.56030
C        -12.99990       -7.73120        9.61260
S        -12.81030       -6.85520        8.10020
C        -13.75150       -7.28700       10.63780
H         -3.52910       -1.28620       -3.58320
H         -2.99710        0.67710       -5.28700
H         -5.74730       -0.66470       -2.22250
H         -6.68020        3.79260       -4.20820
H         -4.04730        5.21110       -7.36140
H         -6.12280        6.86440       -6.63270
H         -7.56960        5.58930       -4.23440
H         -8.31910        8.20620       -5.65770
H        -10.65960        9.04900       -4.41450
H        -12.20900        8.30050       -2.47310
H        -13.29690        6.70790       -0.48620
H        -13.56200        4.77290        1.22450
H        -12.32210        2.69450        2.10780
H        -11.17120        0.57810        3.04690
H         -8.99020        2.59810       -0.15170
H         -7.41660       -1.92540        1.08070
H         -9.21630       -3.91140        4.51490
H         -6.70550       -4.33550        1.42170
H         -7.83550       -5.76820        3.90900
H         -6.83680       -7.73600        3.08450
H         -5.47770       -9.12370        1.50920
H         -4.41930       -9.07940       -0.85360
H         -3.37350       -8.35510       -2.86500
H         -2.71750       -7.11380       -5.04390
H         -2.97870       -4.92980       -6.19160
H         -3.10610       -2.83680       -7.58450
H         -6.14310       -3.14070       -4.47400
H         -6.25020        0.95200       -7.41280
H         -3.21670        1.25710      -10.52940
H         -4.93670        3.33850      -10.29630
H         -6.98040        2.79700       -8.04520
H         -6.72430        5.23470       -9.90060
H         -8.72280        6.98420       -9.19240
H        -10.69040        7.13160       -7.49910
H        -12.48570        6.41490       -5.57640
H        -13.54310        5.14660       -3.56980
H        -13.23770        3.01440       -2.17480
H        -13.04430        0.93360       -0.70630
H         -9.85030        1.39600       -3.63480
H         -9.96940       -2.90950       -0.96180
H        -12.58500       -2.91470        2.52130
H         -9.90410       -5.08980        0.51770
H        -11.60270       -4.89140        3.09060
H         -9.73710       -7.06050        1.94240
H         -9.41220       -9.06630        3.57490
H        -10.07360       -9.83200        5.95790
H        -10.96860       -9.99980        8.16490
H        -12.22630       -9.63980       10.39400
H        -13.84100       -7.85980       11.54970
H        -14.29020       -6.35250       10.59300
