250
630_1064_01010101.out	Energy:   -9161.4256101
C         -5.07070       -0.84260        2.42570
C         -4.55040        0.41050        2.54130
C         -5.44700        1.21350        3.33430
C         -6.56570        0.33360        3.69210
C         -6.32190       -0.89700        3.13770
C         -7.68860        0.68060        4.46350
N         -8.61780        0.94520        5.09550
C         -5.29660        2.54230        3.69580
C         -6.17290        3.32830        4.47900
C         -5.64990        4.61900        4.61470
C         -4.38900        4.65260        3.88550
C         -4.16690        3.42760        3.33570
C         -3.04030        3.08380        2.56170
N         -2.10320        2.84570        1.93290
C         -6.23910        5.66240        5.34160
C         -5.70550        6.93490        5.46380
C         -6.26660        8.02340        6.14420
C         -7.57490        8.04730        6.70530
C         -8.33910        9.21820        6.71570
C         -9.62450        9.00980        7.28810
C         -9.80990        7.72720        7.69230
S         -8.46090        6.71310        7.35560
C         -7.78880       10.39120        6.09300
C         -6.33700       10.51120        6.19890
C         -5.55790        9.29890        6.19480
C         -4.17500        9.36970        6.32740
C         -3.52230       10.62890        6.16910
C         -4.30100       11.83040        6.20240
C         -5.71380       11.73980        6.36930
C         -6.45940       12.94200        6.89890
C         -6.00010       13.24210        8.33190
C         -3.66150       13.07740        6.05260
C         -2.30030       13.13030        5.87040
C         -1.51410       11.94690        5.83210
C         -2.12920       10.71710        5.98300
C         -0.12900       12.24700        5.60570
C          0.09600       13.57240        5.48710
S         -1.32760       14.54910        5.62960
C         -3.35180        8.19860        6.81530
C         -2.76960        8.50260        8.20340
C         -8.52240       11.24610        5.27790
C         -7.97150       12.25230        4.41220
C         -8.98280       12.85160        3.70360
C        -10.24230       12.20690        4.11180
C         -9.95030       11.24480        5.03950
C        -11.52660       12.58130        3.67460
N        -12.58330       12.90950        3.34400
C         -8.89400       13.93780        2.77930
C         -9.81900       14.30900        1.83460
C         -9.42850       15.56520        1.26490
C         -8.16860       15.93030        1.86650
C         -7.82570       14.95320        2.76330
C         -6.69670       14.93940        3.60110
N         -5.78200       14.93150        4.30600
C        -10.29120       16.31250        0.48800
C        -10.18020       17.64800        0.08290
C        -11.28510       18.39740       -0.32190
C        -11.12500       19.52890       -1.17210
C        -12.18760       20.13920       -1.83910
C        -11.72660       21.17110       -2.70650
C        -10.37840       21.32610       -2.66400
S         -9.60430       20.23780       -1.58110
C        -13.53040       19.66730       -1.60600
C        -13.65320       18.31890       -1.05380
C        -12.63660       17.92090       -0.11250
C        -12.99150       17.03920        0.91080
C        -14.12880       16.19900        0.73760
C        -14.94890       16.35290       -0.43270
C        -14.72410       17.46770       -1.29540
C        -15.52260       17.59760       -2.57130
C        -15.02120       16.56980       -3.59510
C        -16.01960       15.45930       -0.63870
C        -16.23910       14.43200        0.24970
C        -15.40200       14.24290        1.38290
C        -14.37630       15.13670        1.62650
C        -15.78410       13.08370        2.13470
C        -16.85470       12.46000        1.60070
S        -17.47190       13.21310        0.16530
C        -12.33090       17.12550        2.26880
C        -13.31540       17.76100        3.26070
C        -14.64880       20.49730       -1.61510
C        -15.93610       20.15300       -1.07280
C        -16.78200       21.23070       -1.16000
C        -16.01680       22.33140       -1.76630
C        -14.74810       21.88490       -2.01800
C        -16.52400       23.61380       -2.05070
N        -16.94970       24.66010       -2.29110
C        -18.14990       21.30090       -0.76080
C        -18.90900       22.43210       -0.58270
C        -20.24920       22.05440       -0.25710
C        -20.28180       20.60990       -0.22420
C        -19.03040       20.14090       -0.51970
C        -18.64550       18.79590       -0.65830
N        -18.32560       17.69500       -0.79950
C        -21.33950       22.90070       -0.10270
C        -21.22040       24.28100       -0.26170
C        -22.20540       25.27060       -0.23870
C        -23.48230       25.10360        0.36680
C        -24.37870       26.16330        0.55030
C        -25.54320       25.75780        1.26380
C        -25.52410       24.44050        1.58380
S        -24.10770       23.63470        1.03410
C        -24.04070       27.46670        0.05430
C        -22.61660       27.72750       -0.12530
C        -21.82090       26.62780       -0.60670
C        -20.68290       26.92720       -1.36020
C        -20.08550       28.21430       -1.22770
C        -20.71700       29.21270       -0.40880
C        -22.03440       28.97210        0.07340
C        -22.70700       29.98520        0.97240
C        -22.12380       29.87840        2.38880
C        -20.05620       30.43990       -0.18590
C        -18.82560       30.67200       -0.75110
C        -18.18580       29.68930       -1.55530
C        -18.81890       28.48280       -1.78540
C        -16.90490       30.14410       -2.01630
C        -16.61750       31.39010       -1.58670
S        -17.85180       32.10270       -0.59900
C        -20.17480       25.99240       -2.43440
C        -20.44010       26.60920       -3.81700
C        -24.99780       28.33350       -0.48200
C        -26.40490       28.14550       -0.53060
C        -26.99490       29.15660       -1.28040
C        -25.90040       30.02030       -1.75530
C        -24.72300       29.51730       -1.28430
C        -26.02700       31.15260       -2.58340
N        -26.10190       32.08770       -3.25490
C        -28.36650       29.30860       -1.57120
C        -28.98410       30.29860       -2.34020
C        -30.36440       30.04160       -2.40800
C        -30.62100       28.84420       -1.63610
C        -29.43590       28.39630       -1.12120
C        -29.28290       27.26690       -0.29710
N        -29.18270       26.34110        0.38600
C        -31.30620       30.81560       -3.12070
C        -32.64630       30.54000       -3.18270
C        -33.63230       31.20420       -3.98250
C        -33.28890       31.81070       -5.19120
C        -34.27120       32.13730       -6.16410
C        -33.68830       32.68640       -7.35700
C        -32.34470       32.74420       -7.29060
S        -31.69640       32.14260       -5.79890
C        -35.59230       31.81220       -5.94330
C        -36.01870       31.30230       -4.69530
C        -35.04540       31.12800       -3.63820
C        -35.50560       30.98910       -2.32280
C        -36.89740       30.86050       -2.06160
C        -37.82920       30.76160       -3.15650
C        -37.37610       31.00520       -4.46610
C        -38.35980       31.02630       -5.61250
C        -39.04490       32.39300       -5.73690
C        -39.19820       30.50020       -2.87950
C        -39.63520       30.40040       -1.58750
C        -38.74010       30.57940       -0.49420
C        -37.40290       30.80660       -0.74220
C        -39.42480       30.47170        0.76310
C        -40.74150       30.22090        0.61170
S        -41.25930       30.10060       -1.03910
C        -34.57790       31.07570       -1.13020
C        -34.37360       29.73310       -0.41480
H         -4.63690       -1.67620        1.89380
H         -3.62400        0.76290        2.11880
H         -6.95390       -1.76870        3.21470
H         -7.10130        2.98900        4.90880
H         -3.74140        5.51200        3.80080
H         -7.17500        5.42800        5.83870
H         -4.78940        7.14070        4.91840
H        -10.34580        9.79700        7.44800
H        -10.67820        7.31700        8.18150
H         -7.53320       12.74950        6.91800
H         -6.29130       13.82230        6.27340
H         -6.18560       12.38080        8.97490
H         -6.55460       14.09600        8.72110
H         -4.93560       13.47350        8.36130
H         -4.24430       13.98830        6.01250
H         -1.53160        9.81750        5.89960
H          0.63740       11.48750        5.54260
H          1.04560       14.05500        5.31730
H         -2.54130        7.96510        6.11860
H         -3.97140        7.30550        6.91320
H         -2.10860        9.36810        8.17680
H         -2.20380        7.64110        8.55800
H         -3.57680        8.70590        8.90780
H         -6.91920       12.44730        4.29000
H        -10.67050       10.60280        5.51940
H        -10.72620       13.78490        1.57920
H         -7.60400       16.82160        1.64040
H        -11.22700       15.81650        0.23500
H         -9.19770       18.10560        0.01750
H        -12.36100       21.73110       -3.37590
H         -9.78840       22.02950       -3.22850
H        -15.39500       18.59200       -3.00220
H        -16.58920       17.44880       -2.38680
H        -13.96970       16.75060       -3.82160
H        -15.59880       16.65950       -4.51490
H        -15.12250       15.55330       -3.21610
H        -16.68960       15.58730       -1.47790
H        -13.72950       14.96420        2.47780
H        -15.25220       12.75960        3.01810
H        -17.33940       11.57040        1.97090
H        -11.44510       17.76140        2.21930
H        -12.01850       16.14630        2.64090
H        -13.61020       18.75140        2.91240
H        -12.83630       17.85910        4.23460
H        -14.21150       17.15160        3.37060
H        -16.17020       19.21870       -0.59190
H        -13.96350       22.47880       -2.45550
H        -18.55140       23.44430       -0.66840
H        -21.15960       20.01770       -0.01550
H        -22.30990       22.44860        0.06990
H        -20.21180       24.63930       -0.43140
H        -26.32520       26.42950        1.58210
H        -26.27500       23.89270        2.12910
H        -23.77820       29.78860        1.03700
H        -22.57960       31.00230        0.59430
H        -22.29900       28.87890        2.78780
H        -22.60670       30.60640        3.04060
H        -21.05040       30.06620        2.38830
H        -20.51470       31.21050        0.41960
H        -18.30200       27.72530       -2.36050
H        -16.25620       29.54600       -2.64020
H        -15.72460       31.95800       -1.79500
H        -20.71570       25.04500       -2.40450
H        -19.10830       25.77300       -2.32330
H        -21.51070       26.76580       -3.95340
H        -20.08460       25.92680       -4.58880
H        -19.93440       27.56610       -3.93680
H        -26.94250       27.33030       -0.08290
H        -23.74070       29.89970       -1.51210
H        -28.48760       31.12500       -2.82260
H        -31.58680       28.38680       -1.48680
H        -30.91550       31.70160       -3.61080
H        -33.00710       29.67690       -2.63560
H        -34.27890       33.00650       -8.20360
H        -31.66730       33.11450       -8.04340
H        -36.30420       31.98780       -6.73890
H        -39.12140       30.25610       -5.46650
H        -37.85770       30.78550       -6.55250
H        -39.58250       32.63360       -4.81960
H        -39.75280       32.37970       -6.56570
H        -38.30600       33.17360       -5.91900
H        -39.90930       30.38760       -3.68690
H        -36.74880       30.94980        0.10720
H        -38.92750       30.57670        1.71700
H        -41.47040       30.09280        1.39640
H        -34.98500       31.79760       -0.41460
H        -33.60570       31.46590       -1.44140
H        -35.29390       29.39710        0.06140
H        -33.60570       29.84130        0.35110
H        -34.06170       28.95870       -1.11460
