182
630_542_01010101.out	Energy:   -8112.1211632
C        -23.73090        6.18130       -3.75330
C        -24.01530        7.40160       -4.24260
C        -22.74880        8.05350       -4.59110
C        -21.69430        7.07840       -4.24850
C        -22.29950        5.98430       -3.76000
C        -20.29270        7.18940       -4.38950
N        -19.14340        7.27020       -4.49880
C        -22.62140        9.29040       -5.11980
C        -21.35290        9.92270       -5.44560
C        -21.58440       11.14450       -5.96140
C        -23.02610       11.34560       -5.99250
C        -23.65160       10.26670       -5.49130
C        -25.05640       10.16160       -5.37880
N        -26.21140       10.09180       -5.28730
C        -20.56950       12.06050       -6.41670
C        -19.25240       11.80440       -6.41470
C        -18.31140       12.73030       -6.93090
S        -16.77930       12.80450       -6.16140
C        -16.26640       14.12610       -7.11000
C        -17.27430       14.54680       -7.96710
C        -18.35230       13.57700       -8.03090
C        -19.38510       13.62070       -9.16150
C        -19.92150       12.26000       -9.65820
F        -19.12690       11.21620       -9.34640
F        -21.15290       12.01710       -9.14670
F        -20.07230       12.24150      -11.00600
C        -18.75800       14.37390      -10.35810
C        -18.30950       15.77190       -9.94950
C        -17.24470       15.80080       -8.82990
C        -17.47220       17.08940       -8.01900
F        -16.54750       17.28520       -7.06070
F        -17.42170       18.17110       -8.83430
F        -18.68830       17.09280       -7.42460
C        -14.95930       14.63040       -6.91170
C        -14.69600       15.57010       -5.98390
C        -13.28180       15.92980       -6.08370
C        -12.72600       15.06890       -7.14190
C        -13.72770       14.30140       -7.60700
C        -11.39650       14.98300       -7.60360
N        -10.30540       14.91300       -8.01080
C        -12.67140       16.87780       -5.34410
C        -11.28190       17.30440       -5.49940
C        -11.02600       18.27580       -4.60360
C        -12.24990       18.52970       -3.85230
C        -13.22830       17.71250       -4.27050
C        -14.52590       17.70400       -3.70680
N        -15.58350       17.70080       -3.23070
C         -9.81980       19.05980       -4.54810
C         -8.56810       18.67030       -4.86530
C         -7.48140       19.60610       -4.84390
S         -7.51480       20.88690       -3.68620
C         -6.28160       21.79440       -4.44590
C         -5.70130       21.02090       -5.44610
C         -6.28600       19.67940       -5.55770
C         -5.58650       18.66110       -6.47490
C         -5.82220       17.17230       -6.20090
F         -5.81820       16.87610       -4.88480
F         -6.99540       16.75500       -6.72480
F         -4.85660       16.41330       -6.77950
C         -4.06340       18.93720       -6.35370
C         -3.69210       20.32530       -6.87470
C         -4.58640       21.47550       -6.37230
C         -5.11820       22.29340       -7.55700
F         -5.95670       23.27820       -7.16840
F         -4.09210       22.88450       -8.21460
F         -5.77580       21.51520       -8.44600
C         -5.99160       23.11540       -3.97130
C         -6.94480       23.93690       -3.46990
C         -6.33460       25.21230       -3.08270
C         -4.91550       25.07710       -3.42600
C         -4.73010       23.84320       -3.92390
C         -3.86100       25.99860       -3.23140
N         -2.98230       26.74120       -3.08280
C         -6.98270       26.26340       -2.53640
C         -6.40730       27.57620       -2.26100
C         -7.37040       28.37120       -1.75120
C         -8.60330       27.59890       -1.64790
C         -8.38210       26.36120       -2.10020
C         -9.35220       25.20260       -1.93560
N        -10.15690       24.24150       -1.79900
C         -7.13530       29.73680       -1.36450
C         -8.10690       30.53000       -0.89560
C         -7.85750       31.87440       -0.53980
S         -7.41750       32.19890        1.08100
C         -7.49220       33.88240        0.85980
C         -7.93440       34.20390       -0.41880
C         -7.93340       33.03750       -1.28960
C         -8.07420       33.20340       -2.80690
C         -7.38230       32.15010       -3.68280
F         -6.12080       31.89050       -3.27530
F         -8.07200       30.98980       -3.71930
F         -7.29850       32.57140       -4.97030
C         -7.47750       34.58780       -3.16870
C         -8.23960       35.71030       -2.46840
C         -8.27280       35.59790       -0.92570
C         -9.64020       36.10480       -0.43190
F         -9.83690       35.90820        0.88640
F         -9.74610       37.43800       -0.64940
F        -10.66440       35.50720       -1.08440
C         -7.15530       34.71430        1.96000
C         -8.04700       35.06860        2.90030
C         -7.35900       35.85970        3.93340
C         -5.95670       35.95360        3.49100
C         -5.84970       35.25360        2.34250
C         -4.86720       36.58860        4.11720
N         -3.96400       37.11720        4.62400
C         -7.94530       36.34730        5.04180
C         -7.27700       37.16920        6.04800
C         -8.17140       37.47770        7.00440
C         -9.44210       36.86120        6.66970
C         -9.32780       36.18350        5.51570
C        -10.38250       35.40790        4.98720
N        -11.26510       34.76020        4.58850
C         -7.87800       38.23150        8.18740
C         -7.45660       39.50350        8.18400
C         -7.26150       40.22940        9.39410
S         -5.95020       41.34530        9.44620
C         -6.25270       41.75150       11.06640
C         -7.33860       41.07880       11.58410
C         -7.98240       40.24920       10.58940
C         -9.28030       39.50420       10.89190
C        -10.51210       40.09040       10.18720
F        -10.33540       40.22470        8.85510
F        -11.57390       39.26060       10.35190
F        -10.86830       41.29600       10.67750
C         -9.50950       39.37940       12.41460
C         -9.25980       40.69350       13.16350
C         -7.79920       41.17010       13.02440
C         -6.85520       40.44080       14.00340
F         -5.79310       39.86980       13.39300
F         -6.36220       41.31660       14.91320
F         -7.48230       39.46270       14.69580
H        -24.42630        5.49330       -3.42460
H        -24.95780        7.80730       -4.35300
H        -21.81570        5.13150       -3.43800
H        -20.42170        9.50110       -5.30370
H        -23.49820       12.19200       -6.34710
H        -20.87800       12.97990       -6.76980
H        -18.91540       10.90940       -6.02690
H        -20.23890       14.11320       -8.74510
H        -19.48370       14.45390      -11.14030
H        -17.90250       13.82640      -10.69490
H        -19.16790       16.31210       -9.60860
H        -17.85530       16.21070      -10.81330
H        -16.26210       15.80690       -9.25340
H        -15.37540       15.96820       -5.31690
H        -13.63510       13.58700       -8.34600
H        -10.60870       16.92380       -6.18280
H        -12.34920       19.23610       -3.10660
H         -9.92540       20.03520       -4.22790
H         -8.39030       17.68780       -5.12630
H         -6.01040       18.81150       -7.44570
H         -3.53240       18.20150       -6.92080
H         -3.79960       18.89060       -5.31780
H         -3.74900       20.30400       -7.94300
H         -2.70950       20.52890       -6.50300
H         -3.96910       22.10840       -5.76960
H         -7.94520       23.70150       -3.37520
H         -3.82070       23.46350       -4.23020
H         -5.42670       27.85060       -2.42850
H         -9.50210       27.95180       -1.28380
H         -6.18100       30.11980       -1.45180
H         -9.06080       30.15020       -0.79170
H         -9.11770       33.09260       -3.01590
H         -7.53940       34.73000       -4.22740
H         -6.45750       34.61480       -2.84660
H         -9.24820       35.70320       -2.82580
H         -7.72150       36.61830       -2.69630
H         -7.50080       36.21420       -0.51440
H         -9.05010       34.82580        2.89860
H         -4.97520       35.11840        1.81150
H         -6.28780       37.46300        6.02840
H        -10.30350       36.93280        7.23350
H         -7.99900       37.76500        9.10000
H         -7.26870       39.96880        7.28230
H         -5.68670       42.42670       11.60370
H         -9.15530       38.52320       10.48330
H         -8.84490       38.63470       12.80020
H        -10.53490       39.11320       12.56490
H         -9.47780       40.54660       14.20070
H         -9.89360       41.44240       12.73670
H         -7.76110       42.20280       13.30190
