142
630_764_01010101.out	Energy:   -6136.4905983
C         10.57280        6.27560       -1.87890
C         10.46150        7.60990       -1.75150
C          9.30120        8.04220       -2.53800
C          8.75460        6.81330       -3.14410
C          9.51920        5.78600       -2.73690
C          7.64120        6.65980       -4.00690
N          6.73070        6.53110       -4.71310
C          8.85490        9.31070       -2.64680
C          7.68090        9.72510       -3.41040
C          7.52950       11.05400       -3.26670
C          8.60720       11.55890       -2.44000
C          9.39280       10.54310       -2.05340
C         10.51860       10.71340       -1.21300
N         11.43290       10.86910       -0.52240
C          6.48890       11.82000       -3.88030
C          5.18500       11.59370       -3.66960
C          4.18570       12.35160       -4.31270
S          2.66710       12.69640       -3.56820
C          2.05450       13.59450       -4.93380
C          3.02260       13.56520       -5.88380
C          4.17590       12.88620       -5.55410
N          5.15100       12.81770       -6.51020
C          4.58030       13.55010       -7.53440
N          5.32220       13.74200       -8.73980
O          6.46200       13.25920       -8.76350
O          4.77100       14.37360       -9.64520
C          3.29270       14.00720       -7.21260
C          0.76560       14.17130       -4.90390
C          0.28360       14.85470       -5.95880
C         -1.05440       15.31780       -5.64460
C         -1.33380       14.84310       -4.28220
C         -0.24970       14.17230       -3.86160
C         -2.49420       15.02090       -3.49510
N         -3.45420       15.17320       -2.86050
C         -1.82170       16.02670       -6.49050
C         -3.16550       16.46270       -6.18390
C         -3.65710       17.12310       -7.24500
C         -2.63940       17.15140       -8.28070
C         -1.54440       16.50660       -7.84990
C         -0.37260       16.36890       -8.62560
N          0.59110       16.25350       -9.25890
C         -4.96980       17.68750       -7.31060
C         -5.87430       17.62030       -6.32060
C         -7.15280       18.18940       -6.44510
S         -7.72330       19.02200       -7.83930
C         -9.28130       19.35130       -7.16950
C         -9.29560       18.82010       -5.92500
C         -8.13970       18.18500       -5.52270
N         -8.13220       17.63730       -4.26790
C         -9.41100       17.95860       -3.83550
N         -9.83890       17.55900       -2.53210
O         -9.01550       16.94140       -1.84670
O        -10.98830       17.86760       -2.20250
C        -10.14500       18.67070       -4.79870
C        -10.22270       20.05760       -7.93590
C        -11.45520       20.34410       -7.47430
C        -12.15180       21.11940       -8.48800
C        -11.23430       21.27080       -9.52830
C        -10.08720       20.65110       -9.25070
C        -11.46090       22.12790      -10.76310
N        -11.64880       22.83880      -11.78740
C        -13.41060       21.53320       -8.59280
C        -14.10440       22.40060       -9.53230
C        -15.42570       22.30670       -9.28440
C        -15.61270       21.42880       -8.15180
C        -14.40920       20.98990       -7.78010
C        -14.18650       20.11730       -6.55560
N        -14.00180       19.39350       -5.53980
C        -16.42150       23.03480      -10.00200
C        -17.66390       22.56230      -10.17680
C        -18.58800       23.25960      -10.97560
S        -18.15360       24.21840      -12.35380
C        -19.78660       24.66000      -12.70940
C        -20.57700       24.05510      -11.79650
C        -19.93360       23.27330      -10.85930
N        -20.71580       22.63810       -9.93360
C        -21.97830       23.07830      -10.31420
N        -23.12350       22.64640       -9.57360
O        -22.91170       21.88250       -8.62340
O        -24.22180       23.07050       -9.94740
C        -21.94070       23.93340      -11.43250
C        -20.05780       25.50500      -13.79470
C        -20.06940       26.84360      -13.65090
C        -20.35850       27.43140      -14.95730
C        -20.50000       26.29510      -15.88460
C        -20.31390       25.16790      -15.17880
C        -20.78030       26.30370      -17.26960
N        -21.01280       26.30380      -18.40660
C        -20.45690       28.75260      -15.20300
C        -20.73500       29.34250      -16.50660
C        -20.73640       30.68090      -16.37560
C        -20.49500       31.01010      -14.98290
C        -20.31790       29.88360      -14.27290
C        -20.06230       29.87800      -12.87980
N        -19.85180       29.88580      -11.74210
C        -21.00880       31.58750      -17.45120
C        -20.30890       31.61640      -18.59630
C        -20.62900       32.54050      -19.61720
S        -22.22720       33.15330      -19.94650
C        -21.70230       34.15180      -21.25800
C        -20.37480       33.97350      -21.39870
C        -19.78220       33.09350      -20.51570
N        -18.43320       32.90320      -20.64230
C        -18.15060       33.74040      -21.71530
N        -16.80620       33.83270      -22.19400
O        -15.95930       33.15570      -21.59740
O        -16.60620       34.57700      -23.15930
C        -19.29330       34.40640      -22.20110
H         11.29810        5.69240       -1.43300
H         11.08230        8.22120       -1.19840
H          9.37540        4.79780       -2.99760
H          7.07140        9.10430       -3.96560
H          8.74860       12.54940       -2.18720
H          6.75600       12.58620       -4.51800
H          4.90470       10.84380       -3.01840
H          6.02570       12.36720       -6.47780
H          2.66390       14.55630       -7.81930
H          0.78410       15.02170       -6.84570
H         -0.15110       13.72430       -2.93710
H         -3.66460       16.29420       -5.29650
H         -2.74240       17.59840       -9.20510
H         -5.23980       18.17920       -8.17690
H         -5.62340       17.13730       -5.44380
H         -7.41600       17.14950       -3.80060
H        -11.11260       19.01720       -4.70510
H        -11.83900       20.06190       -6.55890
H         -9.25570       20.60300       -9.86000
H        -13.66290       22.98440      -10.25980
H        -16.51350       21.18560       -7.71080
H        -16.17720       23.95530      -10.39960
H        -17.94450       21.67970       -9.72140
H        -20.45590       22.03530       -9.20000
H        -22.74670       24.38220      -11.89510
H        -19.90360       27.36220      -12.77430
H        -20.34820       24.21080      -15.56320
H        -20.90250       28.82150      -17.38150
H        -20.46400       31.96630      -14.59610
H        -21.78700       32.25600      -17.33920
H        -19.52780       30.95600      -18.73300
H        -22.29820       34.77150      -21.82900
H        -17.82850       32.33030      -20.11740
H        -19.33330       35.07600      -22.98540
