142
630_1204_01010101.out	Energy:   -5540.0444857
C         -0.35840       -3.83580       -4.77210
C         -0.37340       -2.51400       -5.08660
C         -0.70540       -1.75640       -3.90000
C         -0.88790       -2.74950       -2.83140
C         -0.67540       -3.98910       -3.37380
C         -1.21520       -2.48380       -1.49000
N         -1.47680       -2.28750       -0.38280
C         -0.83510       -0.39160       -3.78030
C         -1.18220        0.35100       -2.61630
C         -1.21640        1.69960       -2.91970
C         -0.87310        1.84390       -4.33310
C         -0.64580        0.61120       -4.85740
C         -0.29090        0.34780       -6.19530
N         -0.00010        0.17130       -7.29730
C         -1.54090        2.73940       -2.01040
C         -1.59630        4.06750       -2.32770
C         -1.93630        5.14260       -1.47120
S         -2.15140        6.72850       -2.19090
C         -2.16780        5.20730       -0.10260
N         -2.05640        4.19410        0.82200
C         -2.21600        4.46220        2.17620
C         -2.54990        5.68990        2.59840
N         -2.76060        6.71940        1.69420
C         -2.53830        6.50720        0.34540
C         -2.60130        7.45070       -0.66460
C         -2.97590        8.82170       -0.61100
C         -2.74240        9.77400       -1.59520
C         -3.28800       11.01530       -1.18810
C         -3.91610       10.77680        0.12300
C         -3.71610        9.46620        0.45690
C         -4.61630       11.70620        0.91390
N         -5.20060       12.43520        1.59190
C         -3.25490       12.23640       -1.85470
C         -3.82510       13.45910       -1.43690
C         -3.56490       14.44200       -2.38590
C         -2.79150       13.82730       -3.45420
C         -2.60380       12.51030       -3.15320
C         -1.90380       11.57840       -3.94300
N         -1.32600       10.83270       -4.60730
C         -4.01160       15.78320       -2.29840
C         -3.71610       16.78820       -3.17810
C         -4.19640       18.11910       -3.09350
S         -3.37020       19.39330       -3.97260
C         -5.26670       18.64690       -2.38370
N         -6.20320       17.95590       -1.64660
C         -7.28040       18.62650       -1.08400
C         -7.39450       19.95870       -1.20210
N         -6.45050       20.69350       -1.89400
C         -5.39600       20.05860       -2.51380
C         -4.42430       20.62960       -3.32650
C         -4.25030       22.00180       -3.63470
C         -4.84730       23.07210       -2.97910
C         -4.49490       24.27680       -3.62030
C         -3.58060       23.90940       -4.71440
C         -3.45060       22.54720       -4.71650
C         -2.99070       24.81640       -5.61350
N         -2.50060       25.56310       -6.34460
C         -4.98950       25.54200       -3.30610
C         -4.56740       26.80530       -3.76350
C         -5.34720       27.79320       -3.16110
C         -6.32570       27.12930       -2.31800
C         -6.12380       25.78170       -2.38810
C         -6.90750       24.77530       -1.79630
N         -7.54330       23.91980       -1.34870
C         -5.26170       29.20080       -3.27990
C         -4.36740       29.87170       -4.06960
C         -4.29120       31.27880       -4.14510
S         -5.33410       32.32400       -3.20350
C         -3.42540       32.03870       -4.91750
N         -2.46690       31.56050       -5.78170
C         -1.67820       32.45090       -6.49700
C         -1.83530       33.77590       -6.34780
N         -2.78410       34.29100       -5.48040
C         -3.59100       33.44130       -4.75510
C         -4.59070       33.77490       -3.85120
C         -5.04300       35.04570       -3.41840
C         -4.57780       36.30910       -3.76550
C         -5.32740       37.29300       -3.08200
C         -6.31670       36.56580       -2.26610
C         -6.13450       35.22950       -2.47710
C         -7.28770       37.13740       -1.42290
N         -8.09270       37.58100       -0.72500
C         -5.17360       38.67500       -3.15330
C         -5.89650       39.66900       -2.45750
C         -5.42240       40.92590       -2.81900
C         -4.35630       40.73180       -3.78590
C         -4.19490       39.39170       -3.99520
C         -3.26610       38.79650       -4.86760
N         -2.50520       38.30350       -5.58350
C         -5.91350       42.15990       -2.31740
C         -5.44710       43.39130       -2.67710
C         -5.89700       44.65710       -2.21810
S         -5.06510       46.07980       -2.81710
C         -6.91530       45.03060       -1.34900
N         -7.80990       44.23410       -0.68560
C         -8.83620       44.80580        0.06480
C         -8.91630       46.13390        0.22450
N         -7.95790       46.98240       -0.31030
C         -7.00360       46.44980       -1.17900
C         -6.08360       47.13870       -1.89690
H         -0.14700       -4.65780       -5.43970
H         -0.17750       -2.07970       -6.05300
H         -0.73260       -4.93260       -2.85220
H         -1.39170       -0.07740       -1.64990
H         -0.81350        2.78120       -4.86520
H         -1.77780        2.40470       -1.00480
H         -1.39190        4.35800       -3.35460
H         -1.70410        3.29160        0.54880
H         -2.06100        3.62770        2.84500
H         -2.68960        5.93760        3.64120
H         -2.84800        7.66110        2.04040
H         -2.21200        9.59590       -2.51620
H         -4.10200        8.98360        1.34210
H         -4.38020       13.61090       -0.52590
H         -2.43490       14.33610       -4.33680
H         -4.61180       16.00280       -1.41950
H         -3.02090       16.59030       -3.98900
H         -6.21410       16.94890       -1.66290
H         -7.99100       18.01540       -0.54630
H         -8.20800       20.52340       -0.76900
H         -6.62920       21.67640       -2.04270
H         -5.40450       23.02090       -2.06220
H         -2.87550       21.95400       -5.41110
H         -3.74540       26.97050       -4.44160
H         -7.08840       27.63840       -1.74810
H         -5.96160       29.78430       -2.68720
H         -3.66220       29.31270       -4.67950
H         -2.35100       30.56850       -5.91390
H         -0.94780       32.01270       -7.16200
H         -1.24160       34.50220       -6.88450
H         -2.88160       35.29090       -5.40190
H         -3.76650       36.53040       -4.43640
H         -6.69780       34.42370       -2.03180
H         -6.69030       39.48370       -1.75240
H         -3.78910       41.51930       -4.25840
H         -6.71860       42.06750       -1.59410
H         -4.63160       43.43990       -3.39370
H         -7.81610       43.23750       -0.82680
H         -9.54400       44.11360        0.49770
H         -9.69660       46.60620        0.80540
H         -8.15490       47.96920       -0.36080
H         -5.94560       48.20550       -1.93770
