126
630_499_01010101.out	Energy:   -3573.8492154
C         -0.38240       25.83980       11.42820
C         -0.39960       24.91910       10.44840
C         -1.36560       25.35460        9.43620
C         -1.91030       26.63310        9.93560
C         -1.31360       26.89670       11.11020
C         -2.87260       27.48760        9.34660
N         -3.66120       28.19030        8.86510
C         -1.66060       24.69050        8.29870
C         -2.62980       25.13030        7.30640
C         -2.67420       24.23670        6.29970
C         -1.72330       23.17730        6.60550
C         -1.12180       23.42730        7.78190
C         -0.15280       22.57640        8.35790
N          0.64180       21.86990        8.82320
C         -3.52290       24.34390        5.13940
C         -4.39590       25.34390        4.92860
C         -5.24030       25.45400        3.74120
C         -4.81670       25.00130        2.48970
C         -5.65030       25.12780        1.38070
C         -6.88230       25.74360        1.57210
N         -7.31650       26.22910        2.75970
C         -6.48500       26.07490        3.81540
C         -5.23090       24.61910        0.08210
C         -5.46820       23.35770       -0.33440
C         -4.89680       23.19940       -1.67800
C         -4.29090       24.50350       -2.00070
C         -4.49290       25.32050       -0.95200
C         -3.60030       24.89730       -3.17030
N         -3.03300       25.22800       -4.12730
C         -4.94500       22.07310       -2.42250
C         -4.39600       21.91310       -3.77110
C         -4.63690       20.65590       -4.19560
C         -5.34940       19.95670       -3.13570
C         -5.53890       20.77230       -2.08690
C         -6.18810       20.36090       -0.90140
N         -6.71700       20.01100        0.07060
C         -4.23060       20.15670       -5.48660
C         -4.47890       18.90730       -5.90560
C         -4.07740       18.44280       -7.22530
C         -4.93330       18.60820       -8.31220
C         -4.56220       18.14130       -9.57710
C         -3.31600       17.52620       -9.67970
N         -2.45570       17.35330       -8.64720
C         -2.85840       17.81560       -7.44290
C         -5.44600       18.29240      -10.73430
C         -6.79440       18.31320      -10.65530
C         -7.34430       18.48630      -12.00040
C         -6.17890       18.56030      -12.89260
C         -5.07530       18.44420      -12.13320
C         -6.14560       18.72950      -14.29380
N         -6.11230       18.86390      -15.44790
C         -8.65790       18.55970      -12.29780
C         -9.22540       18.73360      -13.63330
C        -10.56960       18.75810      -13.53090
C        -10.92070       18.60720      -12.13040
C         -9.80980       18.48790      -11.39010
C         -9.84210       18.32760       -9.99050
N         -9.87780       18.19530       -8.83610
C        -11.44690       18.91190      -14.65850
C        -12.78650       18.93920      -14.56930
C        -13.66120       19.11500      -15.72840
C        -13.25780       19.85150      -16.84280
C        -14.10970       20.02750      -17.93450
C        -15.36970       19.44600      -17.84200
N        -15.81380       18.74070      -16.77360
C        -14.95140       18.59820      -15.74140
C        -13.67700       20.78900      -19.10720
C        -12.78790       21.80600      -19.06080
C        -12.58520       22.32070      -20.41470
C        -13.45290       21.50320      -21.27420
C        -14.08470       20.61150      -20.49130
C        -13.64240       21.57870      -22.67020
N        -13.80610       21.63520      -23.81980
C        -11.76170       23.33800      -20.74400
C        -11.55220       23.86170      -22.09210
C        -10.67400       24.88320      -22.03070
C        -10.27420       25.05050      -20.64330
C        -10.90310       24.15070      -19.87160
C        -10.71110       24.07200      -18.47490
N        -10.54800       24.01260      -17.32690
C        -10.25170       25.62150      -23.19180
C         -9.38270       26.64410      -23.17100
C         -8.96250       27.36010      -24.37900
C         -8.86970       26.73720      -25.62640
C         -8.45120       27.46230      -26.73670
C         -8.11600       28.79330      -26.56120
N         -8.16570       29.42970      -25.37160
C         -8.58310       28.69860      -24.31070
H          0.20490       25.79760       12.27570
H          0.16770       24.05760       10.41500
H         -1.49320       27.72750       11.69560
H         -3.19460       25.99200        7.36480
H         -1.53830       22.35640        6.00810
H         -3.45560       23.60400        4.42320
H         -4.47470       26.07850        5.64920
H         -3.88390       24.57220        2.38620
H         -7.50670       25.83680        0.75580
H         -6.79120       26.43930        4.73110
H         -5.96630       22.62880        0.20000
H         -4.17140       26.29930       -0.89160
H         -3.90450       22.64390       -4.30920
H         -5.66370       18.97490       -3.18410
H         -3.72290       20.79370       -6.12020
H         -4.96930       18.25560       -5.27340
H         -5.84380       19.07670       -8.18340
H         -3.02800       17.17780      -10.60740
H         -2.22300       17.69550       -6.63860
H         -7.34650       18.22200       -9.78820
H         -4.10720       18.46040      -12.49020
H         -8.68690       18.82290      -14.50910
H        -11.88370       18.59390      -11.75960
H        -11.02150       19.00720      -15.59390
H        -13.21940       18.83110      -13.63870
H        -12.31570       20.27240      -16.86010
H        -16.01090       19.55950      -18.64270
H        -15.27100       18.07350      -14.91220
H        -12.32710       22.16150      -18.20860
H        -14.75960       19.90510      -20.82370
H        -12.00270       23.50780      -22.95050
H         -9.60480       25.75770      -20.30170
H        -10.64510       25.34510      -24.10500
H         -8.99240       26.93990      -22.26270
H         -9.11180       25.73870      -25.72370
H         -8.39220       27.01950      -27.66700
H         -7.81020       29.33060      -27.38750
H         -8.62260       29.16420      -23.39050
