202
630_555_01010101.out	Energy:   -5151.6534772
C          2.67820        5.22650       -9.17190
C          1.36930        4.98970       -9.01850
C          0.75970        6.16350       -8.37340
C          1.87630        7.10630       -8.17690
C          2.99150        6.53220       -8.64950
C          1.85430        8.40130       -7.59760
N          1.85340        9.46160       -7.13240
C         -0.54550        6.30860       -8.05290
C         -1.14920        7.48200       -7.41320
C         -2.46740        7.25110       -7.25290
C         -2.77000        5.93610       -7.78750
C         -1.64570        5.36700       -8.26640
C         -1.62470        4.09210       -8.84640
N         -1.63800        3.03210       -9.32840
C         -3.39300        8.17980       -6.66750
C         -4.10270        7.91050       -5.56330
N         -5.04500        8.70440       -4.95210
C         -5.86310        9.72540       -5.60810
N         -6.56600       10.58620       -4.63340
C         -5.59780       10.51990       -3.54110
N         -6.17080       11.04290       -2.31130
C         -5.52710       10.34270       -1.18730
C         -4.06280        9.79240       -1.55010
N         -3.98560        8.76890       -2.58120
C         -5.10310        8.98100       -3.51850
N         -3.57020        9.24140       -0.29390
C         -4.09790       10.24460        0.65300
N         -5.28000       10.92810        0.12280
C         -5.78330       12.12240        0.57290
C         -5.64430       12.66780        1.78910
C         -6.23180       13.92740        2.14880
C         -5.71390       14.74690        3.09070
C         -6.57960       15.92070        3.21210
C         -7.70660       15.68130        2.29540
C         -7.48250       14.50780        1.68410
C         -8.85310       16.48130        2.04410
N         -9.79840       17.11110        1.82910
C         -6.33850       16.98820        3.99960
C         -7.19640       18.15760        4.09810
C         -6.64040       19.03450        4.95780
C         -5.37980       18.47850        5.41880
C         -5.20000       17.25820        4.88680
C         -4.09200       16.43400        5.19160
N         -3.18980       15.75690        5.45460
C         -7.19740       20.32250        5.26200
C         -8.51480       20.55150        5.34230
N         -9.15530       21.73110        5.61990
C         -8.51450       23.02960        5.81410
N         -9.44280       24.02240        6.38720
C        -10.30100       23.10800        7.13770
N        -11.50980       23.78130        7.55720
C        -12.58480       22.77940        7.67150
C        -12.01400       21.29600        7.91790
N        -11.20170       20.72340        6.85730
C        -10.49700       21.83060        6.18190
N        -13.20790       20.48460        8.10690
C        -14.02530       21.42050        8.90410
N        -13.65550       22.82100        8.66600
C        -13.88880       23.84700        9.55500
C        -13.57490       25.13910        9.41180
C        -13.79020       26.13140       10.41930
C        -14.57130       27.21250       10.23120
C        -14.54710       28.01390       11.45520
C        -13.62460       27.31750       12.36620
C        -13.20310       26.20410       11.74450
C        -13.19710       27.68920       13.65930
N        -12.83730       27.98930       14.72250
C        -15.26830       29.13300       11.66620
C        -15.25980       29.92680       12.89300
C        -16.17810       30.90400       12.77700
C        -16.76180       30.82440       11.44680
C        -16.23430       29.78900       10.77490
C        -16.59680       29.46610        9.44880
N        -16.90500       29.21380        8.35700
C        -16.41700       31.88790       13.79630
C        -17.60320       32.47960       13.97670
N        -17.92980       33.43640       14.90520
C        -17.25200       33.63770       16.18800
N        -18.02180       34.52420       17.08460
C        -19.36770       34.21650       16.60350
N        -20.32020       35.19670       17.08590
C        -21.41650       35.30750       16.10730
C        -21.56970       33.97760       15.21290
N        -20.45510       33.64030       14.34450
C        -19.22220       34.09950       15.00880
N        -22.74860       34.23000       14.39730
C        -23.60300       34.90050       15.39510
N        -22.81600       35.56270       16.44180
C        -23.31640       35.92260       17.67180
C        -22.67460       36.49300       18.69720
C        -23.29630       36.75210       19.96130
C        -22.81220       36.28270       21.12870
C        -23.69600       36.73110       22.20740
C        -24.75150       37.51160       21.54530
C        -24.49510       37.52070       20.23020
C        -25.86300       38.15790       22.10990
N        -26.79090       38.69800       22.56460
C        -23.52480       36.46860       23.51880
C        -24.39520       36.93550       24.59610
C        -23.90980       36.48510       25.76990
C        -22.68940       35.74300       25.50180
C        -22.45370       35.70900       24.17780
C        -21.35400       35.02250       23.60770
N        -20.45110       34.45660       23.16570
C        -24.52120       36.78480       27.03580
C        -24.38830       36.01380       28.12170
N        -24.94040       36.19380       29.36870
C        -25.86340       37.26410       29.75250
N        -25.95430       37.42160       31.22010
C        -24.61250       36.96180       31.57610
N        -24.50740       36.72900       33.00670
C        -23.54780       35.63350       33.21900
C        -22.46590       35.53110       32.02970
N        -22.96820       35.18430       30.71120
C        -24.34370       35.70110       30.60680
N        -21.54570       34.49200       32.46990
C        -21.47780       34.81000       33.91080
N        -22.67220       35.51450       34.37670
C        -22.85510       36.09940       35.60330
C        -21.99430       36.14660       36.62330
H          3.35650        4.57570       -9.59770
H          0.87290        4.13100       -9.30380
H          3.93070        6.95990       -8.64060
H         -0.64900        8.34000       -7.13290
H         -3.70610        5.50170       -7.79930
H         -3.51770        9.09940       -7.11910
H         -3.92020        6.99770       -5.11790
H         -6.58920        9.24060       -6.22660
H         -5.21230       10.34690       -6.18700
H         -7.47250       10.20240       -4.36630
H         -4.73910       11.14530       -3.66940
H         -7.17650       10.87340       -2.29660
H         -6.34590        9.66330       -1.07370
H         -3.49420       10.59890       -1.96380
H         -4.06030        7.84420       -2.15720
H         -5.70930        8.21850       -3.07590
H         -2.55130        9.20040       -0.27260
H         -3.33650       10.97090        0.84720
H         -4.38370        9.73570        1.54980
H         -6.33590       12.66690       -0.10770
H         -5.09130       12.16060        2.49760
H         -4.85300       14.57400        3.63290
H         -8.10780       14.07840        0.98450
H         -8.08570       18.29420        3.59250
H         -4.72160       18.95010        6.05870
H         -6.55140       21.11020        5.42680
H         -9.12490       19.73630        5.17390
H         -8.16590       23.38800        4.86810
H         -7.70400       22.89940        6.50050
H         -9.95750       24.52820        5.66640
H         -9.88170       22.77230        8.06310
H        -11.76830       24.48670        6.86740
H        -13.02210       23.04560        6.73190
H        -11.33680       21.32790        8.74570
H        -11.79730       20.23290        6.19030
H        -11.18820       21.85960        5.36560
H        -13.00580       19.62630        8.61950
H        -13.88830       21.19960        9.94210
H        -15.04690       21.29610        8.61110
H        -14.36140       23.58810       10.43520
H        -13.15140       25.43870        8.51960
H        -15.09650       27.43700        9.37170
H        -12.55920       25.50580       12.14810
H        -14.65170       29.76540       13.71100
H        -17.47630       31.46920       11.07450
H        -15.63680       32.15050       14.41860
H        -18.36180       32.18180       13.34360
H        -16.29300       34.07650       16.00740
H        -17.15640       32.68500       16.66560
H        -17.78220       35.50650       16.95020
H        -19.76760       33.29730       16.97780
H        -19.85990       36.10090       17.19020
H        -21.03150       36.21290       15.68690
H        -21.62730       33.13730       15.87280
H        -20.56080       34.10820       13.44430
H        -19.17160       34.98380       14.40840
H        -23.16840       33.36420       14.05860
H        -24.23830       34.17040       15.85140
H        -24.17380       35.65050       14.88860
H        -24.31830       35.72670       17.82300
H        -21.68530       36.75880       18.57180
H        -21.96390       35.70610       21.24290
H        -25.06490       38.00210       19.51700
H        -25.24130       37.51440       24.47750
H        -22.09170       35.30660       26.22100
H        -25.09320       37.64040       27.11140
H        -23.79550       35.17660       28.00900
H        -26.83570       37.03490       29.36930
H        -25.49150       38.18120       29.34550
H        -26.68170       36.83200       31.62470
H        -23.83570       37.68010       31.41590
H        -25.41900       36.46870       33.38310
H        -24.31380       34.89430       33.32710
H        -22.04420       36.50370       31.88410
H        -22.96780       34.17100       30.59460
H        -24.78670       34.75170       30.82440
H        -20.63450       34.57660       32.01940
H        -20.62210       35.42770       34.08760
H        -21.40900       33.88750       34.44850
H        -23.76680       36.55790       35.75660
H        -21.06470       35.70700       36.53480
H        -22.25860       36.62260       37.50000
