110
630_766_01010101.out	Energy:   -4920.9235068
C         13.06810       12.15550       -2.91570
C         12.29010       13.23510       -3.11100
C         10.88970       12.79250       -3.10730
C         10.94360       11.33400       -2.89840
C         12.23460       10.98350       -2.78670
C          9.87770       10.40710       -2.82990
N          9.01020        9.63880       -2.77320
C          9.81090       13.59080       -3.25610
C          8.41220       13.15850       -3.22210
C          7.62060       14.23720       -3.38470
C          8.47660       15.40410       -3.53720
C          9.76780       15.04070       -3.46780
C         10.82740       15.95970       -3.59990
N         11.68530       16.73330       -3.71330
C          6.18150       14.17550       -3.39000
C          5.40710       15.25590       -3.56060
C          3.99560       15.15420       -3.54520
S          3.05870       16.57960       -3.76640
C          1.63600       15.61190       -3.62150
N          1.90900       14.33790       -3.41290
N          3.25990       14.07450       -3.37690
C          0.35430       16.21430       -3.73280
C         -0.78100       15.49090       -3.62670
C         -1.92540       16.38930       -3.79310
C         -1.35100       17.72510       -4.01050
C         -0.01470       17.60340       -3.97020
C         -2.01120       18.95940       -4.20670
N         -2.54900       19.97440       -4.36990
C         -3.21950       16.01340       -3.74250
C         -4.35910       16.90260       -3.93550
C         -5.49540       16.18870       -3.81190
C         -5.13290       14.81410       -3.50920
C         -3.79790       14.68950       -3.48390
C         -3.14390       13.46150       -3.21460
N         -2.62680       12.45350       -2.99130
C         -6.81590       16.75040       -3.90660
C         -7.09320       17.81230       -4.67770
C         -8.40920       18.31510       -4.77180
S         -8.71400       19.67500       -5.77740
C        -10.37960       19.55070       -5.34620
N        -10.61750       18.56870       -4.49900
N         -9.49000       17.85460       -4.17710
C        -11.32320       20.45290       -5.89510
C        -12.63700       20.38890       -5.58050
C        -13.33810       21.44310       -6.32040
C        -12.35120       22.06860       -7.08830
C        -11.15270       21.52220       -6.85980
C        -12.59120       23.16050       -8.11820
N        -12.79020       24.06620       -8.97260
C        -14.57660       21.93330       -6.27000
C        -15.29630       22.92400       -7.06590
C        -16.46670       23.19640       -6.45280
C        -16.54400       22.36920       -5.26530
C        -15.42660       21.63360       -5.20020
C        -15.19080       20.52850       -4.18350
N        -14.99520       19.61180       -3.34010
C        -17.46210       24.09890       -6.95770
C        -18.06080       23.92160       -8.14430
C        -19.05000       24.83020       -8.59660
S        -19.79750       24.57270      -10.12450
C        -20.77670       25.96580       -9.82820
N        -20.48980       26.55200       -8.68190
N        -19.51060       25.89610       -7.97270
C        -21.76270       26.36020      -10.77150
C        -22.54320       27.44530      -10.56980
C        -23.44950       27.58740      -11.71610
C        -23.14120       26.45460      -12.60130
C        -22.14790       25.75010      -12.03490
C        -23.73730       26.08600      -13.82590
N        -24.21800       25.76960      -14.83520
C        -24.36090       28.56860      -11.88880
C        -25.25650       28.69920      -13.03860
C        -26.03350       29.78520      -12.86200
C        -25.67440       30.39980      -11.59560
C        -24.68160       29.70530      -11.01380
C        -24.09050       30.08130       -9.78630
N        -23.61300       30.40650       -8.78040
C        -27.04810       30.21440      -13.78690
C        -26.79460       30.50950      -15.07160
C        -27.84180       30.92450      -15.93550
S        -27.74510       30.58580      -17.63120
C        -29.26200       31.35820      -17.80020
N        -29.76870       31.82470      -16.68210
N        -28.95090       31.56150      -15.60260
H         14.09890       12.16340       -2.86590
H         12.61950       14.20450       -3.24060
H         12.57880       10.02290       -2.63220
H          8.08630       12.18770       -3.09460
H          8.14060       16.36970       -3.67810
H          5.72670       13.25880       -3.25650
H          5.84760       16.17780       -3.70570
H         -0.83340       14.47440       -3.45670
H          0.65370       18.38060       -4.08990
H         -4.30430       17.91380       -4.13440
H         -5.80310       14.04800       -3.33910
H         -7.57880       16.32030       -3.36070
H         -6.33470       18.26770       -5.20920
H        -13.07140       19.71420       -4.93150
H        -10.26200       21.81090       -7.29390
H        -14.96540       23.34470       -7.94830
H        -17.32310       22.35030       -4.58870
H        -17.72720       24.91580       -6.38540
H        -17.79870       23.11600       -8.73380
H        -22.50800       28.06890       -9.74830
H        -21.72070       24.90100      -12.43670
H        -25.28770       28.06370      -13.85110
H        -26.11640       31.24480      -11.20100
H        -28.01850       30.29960      -13.44610
H        -25.83120       30.43410      -15.43400
H        -29.74130       31.45040      -18.70950
