146
630_783_01010101.out	Energy:   -6598.3448611
C        -16.62430        1.33540        9.69660
C        -17.51230        2.20120        9.15390
C        -16.81820        3.04550        8.19610
C        -15.41040        2.60090        8.22520
C        -15.31630        1.57770        9.12380
C        -14.35040        3.12040        7.45980
N        -13.46520        3.52040        6.83640
C        -17.35270        4.01910        7.39960
C        -16.66550        4.79440        6.40360
C        -17.57130        5.56680        5.72250
C        -18.89120        5.33230        6.30880
C        -18.77680        4.42500        7.31280
C        -19.82610        3.95120        8.12470
N        -20.70100        3.58580        8.78120
C        -17.33930        6.38650        4.56650
C        -16.10270        6.58320        4.06300
C        -15.75500        7.23830        2.81900
C        -16.37920        8.31070        2.22960
C        -17.56810        9.07250        2.70270
F        -17.52870        9.29810        4.02360
F        -17.66340       10.25960        2.09730
F        -18.71950        8.41760        2.46000
S        -15.58950        8.83910        0.77510
C        -14.39510        7.60540        0.96130
O        -13.40300        7.44880        0.08480
C        -13.44430        8.17090       -1.13520
C        -14.59730        6.81190        2.07110
C        -13.84000        5.61770        2.37350
C        -14.31480        4.47950        2.97110
C        -13.24980        3.52560        3.08740
C        -12.07250        4.15510        2.44930
C        -12.43590        5.39980        2.03590
C        -10.84460        3.51810        2.19510
N         -9.85970        2.98170        1.92290
C        -13.29180        2.31840        3.73650
C        -12.19230        1.45040        4.04750
C        -12.63430        0.44030        4.86800
C        -14.07290        0.60520        5.05350
C        -14.47760        1.71800        4.38520
C        -15.79900        2.20250        4.33910
N        -16.89100        2.57470        4.33640
C        -11.81930       -0.55640        5.49540
C        -12.27480       -1.41360        6.43530
C        -11.45200       -2.34740        7.17590
C        -11.73300       -2.65280        8.48970
C        -12.88610       -2.15490        9.28640
F        -14.06220       -2.54200        8.76030
F        -12.85170       -2.59020       10.54570
F        -12.92410       -0.80860        9.33000
S        -10.52270       -3.63820        9.24190
C         -9.63070       -3.66530        7.76450
O         -8.49450       -4.34620        7.64820
C         -7.97380       -5.02990        8.77670
C        -10.23150       -2.96700        6.73150
C         -9.70580       -2.99410        5.38250
C         -8.40150       -3.20030        5.01870
C         -8.30910       -3.25860        3.58850
C         -9.68600       -3.05600        3.08490
C        -10.50630       -2.91240        4.16130
C        -10.08560       -3.01160        1.73500
N        -10.44050       -2.96020        0.63850
C         -7.19020       -3.51610        2.83800
C         -7.10380       -3.63520        1.41130
C         -5.80600       -3.91340        1.05910
C         -5.01100       -3.97750        2.28220
C         -5.82180       -3.75330        3.35070
C         -5.42440       -3.76230        4.70210
N         -5.07120       -3.78490        5.80010
C         -5.25240       -4.11430       -0.24860
C         -5.99190       -4.17060       -1.37610
C         -5.46880       -4.36000       -2.71490
C         -4.38150       -5.13030       -3.05530
C         -3.49000       -5.95100       -2.18820
F         -4.16520       -6.59400       -1.22620
F         -2.83790       -6.87480       -2.90090
F         -2.55220       -5.20700       -1.57040
S         -4.10220       -5.19760       -4.76800
C         -5.46870       -4.18210       -5.03810
O         -5.81220       -3.79650       -6.26860
C         -5.03230       -4.24690       -7.36490
C         -6.11150       -3.79490       -3.87780
C         -7.23920       -2.89050       -3.84920
C         -7.63450       -2.05600       -2.83380
C         -8.79350       -1.31810       -3.24930
C         -9.08840       -1.77050       -4.62620
C         -8.16040       -2.70490       -4.96660
C        -10.14250       -1.33010       -5.44950
N        -10.98740       -0.98150       -6.15350
C         -9.49220       -0.37500       -2.53710
C        -10.58870        0.42220       -3.00400
C        -10.98790        1.27600       -2.00370
C        -10.14900        1.02080       -0.83350
C         -9.24960        0.04800       -1.13950
C         -8.26890       -0.47750       -0.27670
N         -7.46970       -0.89740        0.44170
C        -12.00890        2.28270       -2.04510
C        -12.64980        2.64360       -3.18040
C        -13.63560        3.68930       -3.34330
C        -14.37450        4.34410       -2.38000
C        -14.39860        4.14970       -0.90880
F        -14.56620        2.86860       -0.55250
F        -13.24680        4.55630       -0.33800
F        -15.38040        4.85250       -0.33400
S        -15.40400        5.57610       -3.03840
C        -14.84440        5.20240       -4.63430
O        -15.34980        5.92920       -5.63980
C        -14.93870        5.62960       -6.96640
C        -13.93390        4.19130       -4.65180
H        -16.82660        0.57610       10.43690
H        -18.56510        2.27230        9.37250
H        -14.42310        1.02720        9.37600
H        -15.60880        4.71910        6.20930
H        -19.79710        5.81710        5.97740
H        -18.21380        6.78740        4.06650
H        -15.25040        6.16300        4.58960
H        -12.51760        7.94350       -1.66280
H        -13.51160        9.24820       -0.94720
H        -14.30170        7.85070       -1.73940
H        -15.32770        4.29430        3.28520
H        -11.81350        6.11720        1.52500
H        -11.17410        1.61230        3.73260
H        -14.70540       -0.05230        5.63000
H        -10.76860       -0.55680        5.22030
H        -13.30710       -1.35070        6.76440
H         -7.03550       -5.48320        8.45690
H         -8.67070       -5.80580        9.11250
H         -7.78990       -4.32930        9.59860
H         -7.56240       -3.30050        5.68500
H        -11.57850       -2.79590        4.13450
H         -7.93640       -3.50080        0.74160
H         -3.95150       -4.18320        2.30860
H         -4.17320       -4.20820       -0.30010
H         -7.07000       -4.05530       -1.31780
H         -5.47610       -3.81420       -8.26170
H         -5.05230       -5.34060       -7.42860
H         -3.99470       -3.91050       -7.26170
H         -7.13330       -1.90450       -1.89290
H         -8.11320       -3.24470       -5.89880
H        -11.01050        0.35190       -3.99280
H        -10.23370        1.54490        0.10750
H        -12.21690        2.78020       -1.10640
H        -12.37620        2.15380       -4.11140
H        -15.46720        6.32960       -7.61410
H        -15.20730        4.60250       -7.23630
H        -13.85760        5.76580       -7.08150
H        -13.46070        3.80500       -5.54150
