134
73_35_01010101.out	Energy:   -8146.6507609
C         -7.45700        4.78780       -4.22360
S         -7.22710        5.85010       -2.89920
C         -5.90060        6.62740       -3.71020
C         -5.68310        6.06700       -4.97320
C         -6.58170        5.01170       -5.25940
S         -6.77670        4.04590       -6.71130
C         -5.23880        4.26540       -7.65910
C         -4.06460        4.04090       -6.74210
O         -3.69770        2.94510       -6.41390
C         -3.36530        5.28400       -6.23760
S         -4.45510        6.72470       -6.04730
C         -5.16090        7.66890       -3.12180
C         -5.40650        8.15900       -1.85250
C         -4.72450        9.15520       -1.16330
C         -3.63780       10.03240       -1.50740
C         -2.98070       10.25570       -2.71710
C         -1.96100       11.19460       -2.77570
C         -1.59720       11.92370       -1.64680
C         -2.24580       11.72510       -0.43400
C         -3.26100       10.78010       -0.35090
C         -4.11920       10.41750        0.76330
C         -5.07140        9.41420        0.24180
O         -5.94180        8.83190        0.87070
C         -3.99310       10.77660        2.08090
S         -2.54700       11.55960        2.65970
C         -3.02700       11.41600        4.33720
C         -4.33000       10.84170        4.41640
C         -4.89150       10.53640        3.19070
S         -6.52320       10.01330        2.87020
C         -7.54500       10.71190        4.23790
C         -7.00340       12.02760        4.71150
O         -7.10800       13.05060        4.08700
C         -6.24180       11.95720        6.01370
S         -5.13700       10.51420        5.95720
C         -2.12480       11.84970        5.28380
C         -2.22800       11.70450        6.68140
C         -1.35600       12.11900        7.65280
C         -0.08820       12.82400        7.66170
C          0.66780       13.34260        6.61650
C          1.91620       13.89330        6.87900
C          2.42660       13.90070        8.17170
C          1.67930       13.40320        9.23160
C          0.40180       12.90500        9.00150
C         -0.56770       12.30990        9.90210
C         -1.63880       11.75870        9.05360
O         -2.59170       11.11880        9.46860
C         -0.70480       12.14010       11.25920
S         -1.95450       11.04570       11.80100
C         -1.42580       11.15950       13.46810
C         -0.36420       12.12000       13.59440
C         -0.01510       12.69650       12.39330
S          1.01390       14.09840       12.13540
C          0.75590       15.08300       13.64000
C          1.69890       14.68690       14.75480
O          2.20930       15.49660       15.47870
C          1.91280       13.20180       14.91140
S          0.30140       12.40410       15.18970
C         -2.06680       10.35090       14.37510
C         -1.79820       10.18630       15.75020
C         -2.47110        9.32710       16.57990
C         -2.18570        9.08850       17.98060
C         -1.23720        9.67940       18.80620
C         -1.15640        9.27720       20.13330
C         -2.01770        8.30420       20.63120
C         -2.97060        7.70600       19.81560
C         -3.05850        8.08690       18.48040
C         -3.96830        7.67450       17.42380
C         -3.60010        8.44730       16.21970
O         -4.09510        8.31890       15.11140
C         -4.91120        6.67510       17.45760
S         -4.91530        5.51550       18.76440
C         -6.20170        4.58720       18.04050
C         -6.63610        5.20330       16.83400
C         -5.96200        6.36400       16.51030
S         -6.31660        7.45920       15.20210
C         -8.10120        7.20090       14.82270
C         -8.89300        6.94910       16.07180
O         -9.15870        7.80980       16.86920
C         -9.29230        5.50820       16.28890
S         -7.89750        4.41920       15.87460
C         -6.69800        3.42770       18.58380
C         -6.22580        2.85550       19.78040
C         -6.71070        1.70290       20.34110
C         -6.26200        1.07800       21.54980
C         -5.26640        1.43760       22.45430
C         -5.03940        0.63520       23.56020
C         -5.79470       -0.53090       23.78140
C         -6.78440       -0.91560       22.90780
C         -7.04120       -0.11800       21.76990
C         -7.96640       -0.26770       20.74270
C         -7.82450        0.83750       19.80560
O         -8.47240        1.03460       18.79420
H         -8.23880        4.04700       -4.19900
H         -5.21040        5.24210       -8.14090
H         -5.27630        3.47030       -8.40360
H         -2.63240        5.58120       -6.99030
H         -2.83610        5.05080       -5.31230
H         -4.34620        8.05940       -3.72210
H         -6.21890        7.69820       -1.29140
H         -3.25860        9.71690       -3.61420
H         -1.44660       11.36780       -3.71440
H         -0.80400       12.65960       -1.71510
H         -1.96200       12.31690        0.42740
H         -7.63090        9.98780        5.04680
H         -8.51220       10.86370        3.75780
H         -6.92680       11.76770        6.84010
H         -5.70200       12.88770        6.19180
H         -1.22360       12.30610        4.88690
H         -3.09640       11.16950        7.05880
H          0.30430       13.31960        5.59680
H          2.50500       14.29960        6.06430
H          3.41900       14.29580        8.35750
H          2.11190       13.39280       10.22360
H         -0.27240       14.98830       13.99150
H          0.93440       16.12340       13.36820
H          2.50760       13.00380       15.80250
H          2.41080       12.78100       14.03910
H         -2.86280        9.74070       13.96020
H         -0.98520       10.76030       16.18560
H         -0.56900       10.44400       18.42590
H         -0.41890        9.72780       20.78790
H         -1.94640        8.00810       21.67180
H         -3.63620        6.96010       20.23160
H         -8.22010        6.40350       14.09060
H         -8.39150        8.15970       14.39210
H        -10.08900        5.23970       15.59470
H         -9.63960        5.36250       17.31230
H         -7.49980        2.93370       18.04480
H         -5.41400        3.37450       20.28870
H         -4.67460        2.33320       22.29930
H         -4.26730        0.90560       24.27160
H         -5.58500       -1.13110       24.66010
H         -7.36440       -1.81480       23.08070
H         -8.68730       -1.06200       20.63130
