162
128_642_01010101_new.out	Energy:   -7890.7371396
C         26.30380       28.98170       -3.57520
C         26.34780       29.08240       -2.21530
C         25.48930       28.33080       -1.38040
C         24.53330       27.42950       -1.90210
C         24.48290       27.32180       -3.32340
C         25.36740       28.09710       -4.15070
N         25.17240       27.86060       -5.44580
S         23.99480       26.77300       -5.60280
N         23.67550       26.54930       -4.03690
C         23.68630       26.68330       -1.07430
C         23.70730       26.75680        0.31890
C         24.66490       27.66610        0.88330
C         25.53680       28.43590        0.03620
N         26.35320       29.22020        0.73120
S         26.06130       29.01820        2.30160
N         24.88170       27.92180        2.16670
C         22.82120       25.95960        1.07580
C         22.75010       25.93350        2.45480
C         21.87860       25.13500        3.17890
C         21.78570       25.08220        4.60950
C         22.49890       25.77470        5.58280
C         22.21510       25.53500        6.91470
C         21.23370       24.61870        7.28460
C         20.51380       23.92130        6.32910
C         20.78490       24.14780        4.98720
C         20.20280       23.56790        3.80210
C         20.88640       24.18570        2.63360
O         20.66750       23.95260        1.45630
C         19.21150       22.62310        3.77120
C         18.67940       22.06900        2.60020
C         17.67940       21.10970        2.54130
C         17.01730       20.54440        3.65910
C         16.03130       19.59250        3.55460
C         15.57470       19.07180        2.29290
C         16.22270       19.62340        1.13880
C         17.24560       20.61700        1.25950
N         17.71300       20.99470        0.08070
S         16.94160       20.17970       -1.07990
N         15.97430       19.30610       -0.12210
C         14.59020       18.11810        2.18780
C         13.92750       17.55970        3.30790
C         14.35580       18.05760        4.58950
C         15.38190       19.04730        4.71060
N         15.62780       19.36800        5.97110
S         14.65370       18.50160        6.93020
N         13.88130       17.68380        5.76740
C         12.92400       16.60320        3.26210
C         12.40120       16.01870        2.10490
C         11.39870       15.09080        2.00680
C         10.55900       14.41200        2.96620
C         10.51440       14.44910        4.35480
C          9.58230       13.67340        5.02460
C          8.69260       12.85980        4.33340
C          8.72010       12.80460        2.95090
C          9.64850       13.57540        2.26580
C          9.87110       13.67780        0.84360
C         10.99020       14.62510        0.65430
O         11.50010       14.98090       -0.39300
C          9.16100       13.02880       -0.13130
C          9.41310       13.14530       -1.50370
C          8.68360       12.52030       -2.50320
C          9.04350       12.70950       -3.86280
C          8.36610       12.15400       -4.92060
C          7.20580       11.32340       -4.74150
C          6.82540       11.09190       -3.37880
C          7.54120       11.66970       -2.27890
N          7.01180       11.32040       -1.11560
S          5.73580       10.35690       -1.37370
N          5.80580       10.34650       -2.98590
C          6.49450       10.79000       -5.78910
C          6.83530       11.00260       -7.14740
C          8.01420       11.79940       -7.36790
C          8.75850       12.36500       -6.28350
N          9.79900       13.06810       -6.69980
S          9.84780       13.02620       -8.31520
N          8.53570       12.10690       -8.54520
C          6.12600       10.51890       -8.23740
C          4.93470        9.79110       -8.16270
C          4.16580        9.30040       -9.18340
C          4.28910        9.27880      -10.62050
C          5.31670        9.67710      -11.46620
C          5.16100        9.53320      -12.83500
C          3.99890        8.99300      -13.37240
C          2.96880        8.57620      -12.54720
C          3.10780        8.71330      -11.17340
C          2.19250        8.34550      -10.11900
C          2.86540        8.66560       -8.84130
O          2.46000        8.47270       -7.71010
C          0.93130        7.83140      -10.27330
C          0.08000        7.51910       -9.20660
C         -1.21150        7.02400       -9.31150
C         -1.88550        6.73140      -10.52240
C         -3.17670        6.26160      -10.57420
C         -3.97030        6.02030       -9.39980
C         -3.31520        6.29170       -8.15410
C         -1.97070        6.78040       -8.11200
N         -1.54950        6.97010       -6.87220
S         -2.72990        6.57130       -5.84600
N         -3.83480        6.13890       -6.94640
C         -5.26510        5.56710       -9.46590
C         -5.94800        5.29100      -10.67780
C         -5.18320        5.50740      -11.88030
C         -3.83030        5.98190      -11.81930
N         -3.28730        6.12290      -13.01760
S         -4.37100        5.69840      -14.13910
N         -5.57880        5.31830      -13.12990
C         -7.26150        4.84890      -10.63900
C         -8.05010        4.54290      -11.75430
C         -9.34720        4.10900      -11.67890
C        -10.19740        3.76830      -12.78540
C         -9.92420        3.77120      -14.14590
C        -10.91070        3.37320      -15.02980
C        -12.15940        2.96010      -14.56350
C        -12.45360        2.95100      -13.21590
C        -11.48370        3.37030      -12.29930
C        -11.49510        3.46650      -10.88240
C        -10.15610        3.89640      -10.44700
O         -9.79860        4.05020       -9.28910
C        -12.49630        3.25020       -9.90570
C        -13.81050        3.02560      -10.08340
H         26.95670       29.55210       -4.21540
H         27.04810       29.74630       -1.73200
H         22.98490       26.01660       -1.55330
H         22.15260       25.31950        0.51730
H         23.42150       26.57710        3.00780
H         23.26110       26.48630        5.30390
H         22.76090       26.06390        7.68200
H         21.03310       24.45080        8.33240
H         19.75600       23.21390        6.63040
H         18.82510       22.28540        4.72540
H         19.08060       22.40890        1.65570
H         17.28350       20.86490        4.65410
H         14.32050       17.79430        1.19510
H         12.53120       16.30830        4.22250
H         12.81420       16.31940        1.14830
H         11.18940       15.06490        4.92570
H          9.54750       13.70210        6.10370
H          7.97630       12.26580        4.88120
H          8.03070       12.17080        2.41420
H          8.34640       12.38270        0.16840
H         10.23800       13.77400       -1.80970
H          9.90020       13.33030       -4.08000
H          5.63600       10.18520       -5.54400
H          6.53360       10.77030       -9.20440
H          4.51720        9.59980       -7.18010
H          6.23540       10.08630      -11.07870
H          5.95710        9.84380      -13.49530
H          3.90270        8.89240      -14.44330
H          2.07340        8.14700      -12.97100
H          0.57720        7.67700      -11.28530
H          0.45070        7.68660       -8.20500
H         -1.37880        6.88020      -11.46310
H         -5.79480        5.41450       -8.53730
H         -7.71380        4.73230       -9.66360
H         -7.59920        4.66060      -12.73110
H         -8.95430        4.07620      -14.50870
H        -10.71340        3.37110      -16.09140
H        -12.90690        2.63830      -15.27390
H        -13.41880        2.60710      -12.88260
H        -12.11350        3.31150       -8.89200
H        -14.27500        3.00200      -11.05230
H        -14.46180        2.88190       -9.23880
