154
365_77_01010101.out	Energy:   -7384.9543115
C         -5.40300      -18.81780       12.63860
C         -4.45650      -18.24380       13.41970
C         -4.26360      -16.85930       13.13900
C         -5.09990      -16.42140       12.12060
S         -6.10140      -17.70370       11.52780
C         -5.21520      -15.13110       11.55580
C         -4.52520      -13.96690       11.88510
C         -3.48390      -13.74700       12.89750
O         -2.98600      -12.65030       13.05560
N         -3.02920      -14.77540       13.70420
C         -3.26440      -16.12750       13.91680
O         -2.60560      -16.67640       14.77750
C         -4.92590      -12.86850       11.09670
C         -5.90450      -13.17170       10.17030
S         -6.34630      -14.85230       10.27540
C         -6.53990      -12.32570        9.22300
C         -6.20880      -11.00600        9.05590
C         -6.76600      -10.07230        8.16180
C         -6.16920       -8.83570        7.84750
C         -4.97760       -8.24810        8.32580
C         -4.56560       -7.05150        7.80490
C         -5.30140       -6.41230        6.77820
C         -6.46420       -6.94890        6.29530
C         -6.94680       -8.16310        6.83690
C         -8.06870       -8.95130        6.51920
C         -8.01360      -10.14660        7.38240
C         -9.03700      -10.98870        7.58980
C         -9.09890       -8.62660        5.60680
C         -9.47090       -7.36200        5.17920
C        -10.52710       -7.34420        4.25440
C        -10.98390       -8.63060        3.94460
S        -10.09470       -9.83360        4.82790
C        -12.00050       -9.01600        3.06250
C        -12.84150       -8.20700        2.28620
C        -12.90400       -6.74530        2.17370
O        -13.71970       -6.20600        1.45220
N        -12.03780       -5.92450        2.87600
C        -10.98690       -6.03790        3.77080
O        -10.46140       -5.00860        4.14580
C        -13.73920       -8.95860        1.51450
C        -13.61170      -10.33160        1.66610
S        -12.34680      -10.69900        2.80820
C        -14.32920      -11.35380        1.00530
C        -15.38510      -11.08360        0.16220
C        -16.14060      -11.96420       -0.62190
C        -17.34590      -11.59760       -1.26670
C        -18.04110      -10.37240       -1.27380
C        -19.22730      -10.27890       -1.95550
C        -19.76380      -11.39420       -2.63640
C        -19.11130      -12.59980       -2.65080
C        -17.88040      -12.72980       -1.97260
C        -17.02510      -13.83700       -1.78810
C        -15.86650      -13.35800       -1.01200
C        -14.67410      -13.97180       -0.95010
C        -17.20000      -15.14300       -2.28960
C        -16.63570      -16.33160       -1.84360
C        -17.01990      -17.46720       -2.57580
C        -17.90120      -17.15500       -3.61680
S        -18.24890      -15.45620       -3.65140
C        -18.48460      -17.98860       -4.57470
C        -18.35970      -19.37350       -4.74650
C        -17.59570      -20.33590       -3.94610
O        -17.60680      -21.52230       -4.20840
N        -16.82860      -19.93330       -2.86180
C        -16.48580      -18.77410       -2.18090
O        -15.72440      -18.88570       -1.24030
C        -19.08980      -19.84210       -5.85050
C        -19.77200      -18.84850       -6.53880
S        -19.51100      -17.29670       -5.78870
C        -20.56670      -18.92260       -7.70180
C        -20.85890      -20.08620       -8.37810
C        -21.59590      -20.22210       -9.56400
C        -22.11300      -19.25060      -10.45390
C        -22.03100      -17.84190      -10.47170
C        -22.66920      -17.13200      -11.45590
C        -23.43090      -17.78420      -12.44970
C        -23.50840      -19.15050      -12.48940
C        -22.82060      -19.91620      -11.52170
C        -22.74160      -21.31200      -11.34320
C        -21.96820      -21.54150      -10.11750
C        -21.59240      -22.73210       -9.62500
C        -23.27820      -22.30010      -12.20270
C        -23.55430      -22.17370      -13.55480
C        -24.11020      -23.31980      -14.14790
C        -24.27480      -24.36320      -13.23240
S        -23.71470      -23.90080      -11.65510
C        -24.81000      -25.64190      -13.43510
C        -25.32500      -26.20590      -14.60750
C        -25.43060      -25.63500      -15.95410
O        -25.90930      -26.27160      -16.87140
N        -24.98610      -24.35240      -16.23650
C        -24.41980      -23.27170      -15.58090
O        -24.19020      -22.27720      -16.24030
C        -25.79300      -27.51590      -14.40350
C        -25.65140      -27.97100      -13.10430
S        -24.91580      -26.75000      -12.10220
C        -26.04550      -29.23690      -12.61460
C        -25.88410      -29.63120      -11.31100
C        -26.25290      -30.85200      -10.71540
C        -26.89350      -31.99050      -11.22940
C        -27.38950      -32.32750      -12.51140
C        -27.98370      -33.54200      -12.71300
C        -28.12260      -34.49170      -11.66240
C        -27.66510      -34.22120      -10.40940
C        -27.03950      -32.96750      -10.15570
C        -26.50390      -32.45800       -8.99760
C        -25.99190      -31.13470       -9.28050
C        -25.38770      -30.33390       -8.38730
H         -5.73450      -19.84270       12.65170
H         -3.88970      -18.75560       14.18450
H         -2.30870      -14.43890       14.33620
H         -4.48890      -11.88900       11.22880
H         -7.29430      -12.79100        8.59940
H         -5.37850      -10.62730        9.64780
H         -4.39570       -8.74330        9.09490
H         -3.65420       -6.58580        8.16260
H         -4.92330       -5.48290        6.36720
H         -6.99260       -6.45460        5.49010
H         -9.96150      -10.91160        7.03380
H         -9.01370      -11.76630        8.33840
H         -9.04460       -6.44450        5.55640
H        -12.22090       -4.94840        2.66360
H        -14.45100       -8.48210        0.85540
H        -14.02630      -12.37490        1.20620
H        -15.71130      -10.04720        0.11260
H        -17.64310       -9.51330       -0.74560
H        -19.77280       -9.34210       -1.97230
H        -20.71060      -11.28560       -3.15380
H        -19.54280      -13.44580       -3.17200
H        -14.50040      -14.94280       -1.39090
H        -13.80960      -13.51300       -0.49390
H        -15.99850      -16.41290       -0.97480
H        -16.36880      -20.73560       -2.44140
H        -19.09890      -20.88770       -6.12480
H        -20.96270      -17.97700       -8.04990
H        -20.49300      -21.00990       -7.93660
H        -21.46350      -17.30660       -9.72190
H        -22.60490      -16.04970      -11.46910
H        -23.95540      -17.18770      -13.18750
H        -24.11040      -19.63500      -13.24750
H        -21.86580      -23.66380      -10.09950
H        -20.98750      -22.82800       -8.73430
H        -23.31360      -21.30190      -14.14480
H        -25.13450      -24.13430      -17.21730
H        -26.22460      -28.10420      -15.20130
H        -26.49790      -29.89390      -13.34770
H        -25.41210      -28.90720      -10.64930
H        -27.30540      -31.63440      -13.33890
H        -28.36380      -33.80050      -13.69520
H        -28.60310      -35.43890      -11.88120
H        -27.76740      -34.93800       -9.60240
H        -26.45730      -32.93700       -8.03200
H        -25.24650      -30.64560       -7.36110
H        -25.01290      -29.35040       -8.63440
