186
365_913_01010101.out	Energy:   -8136.9717317
C        -11.36780       18.71380       12.93740
C        -11.70840       19.02590       11.66470
C        -11.15420       18.13130       10.70100
C        -10.38910       17.14120       11.30160
S        -10.36000       17.31930       13.02360
C         -9.68170       16.07420       10.70050
C         -9.56960       15.74690        9.35380
C        -10.14350       16.40910        8.17760
O         -9.93970       15.98670        7.05590
N        -10.93630       17.53820        8.29660
C        -11.44960       18.36340        9.28870
O        -12.15280       19.28860        8.93130
C         -8.77200       14.59720        9.14890
C         -8.27660       14.05010       10.31000
S         -8.80180       14.96130       11.69370
C         -7.44690       12.89980       10.48750
C         -6.94110       12.16820        9.46080
C         -6.09510       11.02150        9.58020
C         -5.12790       10.66360        8.63570
C         -4.32310        9.58790        9.16080
C         -4.77360        9.29200       10.40620
C         -5.93200       10.11580       10.70480
C         -6.77220        9.85830       11.76950
C         -8.17250       10.29010       11.92310
C         -8.66290        9.76130       13.06010
C         -7.59770        8.97830       13.68970
C         -6.47870        9.03000       12.89760
N         -7.74430        8.35470       14.88750
N         -4.93640       11.28560        7.43410
C         -4.01900       10.94610        6.48280
C         -3.88870       11.64080        5.32590
C         -2.95100       11.30280        4.30560
C         -2.73370       11.97210        3.12500
C         -1.73620       11.38520        2.31020
C         -1.19140       10.24350        2.89090
S         -1.91070        9.91260        4.43490
C         -0.20000        9.37590        2.39360
C          0.49990        9.43530        1.19140
C          0.42270       10.42620        0.11620
O          1.12480       10.34190       -0.87320
N         -0.45050       11.50170        0.18340
C         -1.41940       12.02080        1.02970
O         -1.99120       13.03000        0.66600
C          1.40520        8.35770        1.05100
C          1.40600        7.48820        2.11670
S          0.27330        7.99850        3.33610
C          2.19900        6.31190        2.25750
C          2.13800        5.47630        3.32690
C          2.88290        4.26770        3.49370
C          2.43270        3.15930        4.21610
C          3.31190        2.04250        3.97420
C          4.28630        2.44750        3.11950
C          4.11440        3.86060        2.83570
C          5.09790        4.63320        2.25190
C          5.24150        6.09760        2.34440
C          6.37180        6.45940        1.70990
C          6.99520        5.24740        1.17340
C          6.23410        4.16060        1.52540
N          8.12710        5.26810        0.42740
N          1.30960        3.13780        4.99750
C          0.86150        2.09320        5.75150
C         -0.19990        2.21570        6.58650
C         -0.67840        1.16250        7.42150
C         -1.65960        1.25090        8.37960
C         -1.87400        0.04610        9.09160
C         -1.04450       -0.97910        8.64680
S         -0.00980       -0.44380        7.36060
C         -0.94200       -2.30660        9.10800
C         -1.57810       -2.91270       10.18840
C         -2.57990       -2.36710       11.10510
O         -3.02290       -3.02680       12.02580
N         -3.08290       -1.08340       10.94770
C         -2.88150        0.03510       10.15310
O         -3.56750        1.01250       10.38570
C         -1.15630       -4.25130       10.37230
C         -0.23000       -4.67320        9.44950
S          0.14270       -3.40510        8.31950
C          0.42800       -5.94230        9.34750
C          0.47770       -6.84080       10.36290
C          1.11400       -8.12570       10.29170
C          1.12900       -8.97740        9.18700
C          1.80190      -10.20710        9.54130
C          2.17390      -10.12270       10.84140
C          1.78270       -8.82560       11.37120
C          2.10640       -8.38930       12.63900
C          1.95900       -7.02920       13.18060
C          2.40030       -7.02160       14.45290
C          2.83290       -8.37970       14.78760
C          2.67780       -9.18110       13.68620
N          3.35010       -8.71400       16.00020
N          0.47340       -8.74570        8.01050
C          0.39990       -9.59920        6.94690
C         -0.46060       -9.39400        5.91960
C         -0.57310      -10.27730        4.80010
C          0.23000      -11.33600        4.45000
C         -0.19930      -12.02040        3.28800
C         -1.36080      -11.46860        2.75270
S         -1.89220      -10.10200        3.67880
C         -2.11330      -11.89030        1.63940
C         -1.87180      -12.94560        0.76270
C         -0.76240      -13.90010        0.73370
O         -0.68690      -14.75820       -0.12500
N          0.24600      -13.86940        1.68610
C          0.59570      -13.15750        2.82300
O          1.59830      -13.51220        3.41460
C         -2.88300      -13.06240       -0.21850
C         -3.88390      -12.12540       -0.10320
S         -3.58360      -11.05930        1.23930
C         -5.03880      -12.01040       -0.93030
C         -5.99070      -11.05180       -0.78570
C         -7.15780      -10.89710       -1.59620
C         -7.77100       -9.66980       -1.86420
C         -8.77070       -9.85150       -2.89040
C         -8.77110      -11.15800       -3.25580
C         -7.82430      -11.88650       -2.42800
C         -7.79890      -13.26340       -2.35960
C         -7.24610      -14.08750       -1.27110
C         -7.47610      -15.38350       -1.55410
C         -8.15970      -15.44840       -2.84710
C         -8.38270      -14.17330       -3.29850
N         -8.53920      -16.62000       -3.42450
N         -7.43330       -8.48310       -1.28390
C         -8.00190       -7.25320       -1.53670
C         -7.61520       -6.14630       -0.90150
H        -11.65300       19.22700       13.84070
H        -12.33290       19.85970       11.37640
H        -11.24320       17.85400        7.38150
H         -8.58920       14.20580        8.15830
H         -7.20570       12.63550       11.51170
H         -7.12320       12.51320        8.44410
H         -3.50200        9.11460        8.64480
H         -4.40190        8.51030       11.05040
H         -8.71840       10.86100       11.18940
H         -9.66190        9.85440       13.45870
H         -5.52750        8.56850       13.10690
H         -8.67420        8.21940       15.24270
H         -7.05640        7.67010       15.14980
H         -5.54560       12.06470        7.21960
H         -3.39400       10.08730        6.69960
H         -4.52080       12.50390        5.14000
H         -3.26440       12.86580        2.82820
H         -0.36630       12.07640       -0.64970
H          2.03160        8.24410        0.17750
H          2.86010        6.08970        1.42570
H          1.39760        5.69280        4.09690
H          3.20050        1.05830        4.40260
H          5.11840        1.85480        2.77190
H          4.58380        6.73950        2.90810
H          6.79040        7.44950        1.61070
H          6.42600        3.13400        1.25850
H          8.67480        6.10920        0.40130
H          8.60360        4.40170        0.24910
H          0.79860        4.00730        5.08020
H          1.40540        1.16020        5.65870
H         -0.71260        3.16980        6.66770
H         -2.21580        2.15190        8.59630
H         -3.79140       -0.89410       11.65020
H         -1.55600       -4.86810       11.16480
H          0.97630       -6.12450        8.42790
H          0.02010       -6.57810       11.31240
H          1.96010      -11.04270        8.87750
H          2.71260      -10.87080       11.40210
H          1.60790       -6.17840       12.61990
H          2.44910       -6.18540       15.13400
H          2.90330      -10.23340       13.62640
H          3.17750       -8.09540       16.77310
H          3.43780       -9.69150       16.21860
H         -0.10900       -7.91730        7.97720
H          1.06380      -10.45460        6.97690
H         -1.13270       -8.54190        5.94950
H          1.11890      -11.63650        4.98660
H          0.91790      -14.61080        1.51260
H         -2.85880      -13.82950       -0.97960
H         -5.11960      -12.74560       -1.72480
H         -5.82300      -10.28040       -0.03420
H         -9.40010       -9.07210       -3.29150
H         -9.42900      -11.62000       -3.97580
H         -6.81580      -13.69110       -0.36550
H         -7.22940      -16.24770       -0.95600
H         -8.85370      -13.89800       -4.22820
H         -8.09330      -17.46430       -3.11110
H         -8.82350      -16.59540       -4.38870
H         -6.70460       -8.50540       -0.58320
H         -8.78380       -7.24220       -2.28740
H         -6.83550       -6.15470       -0.15250
H         -8.07410       -5.19430       -1.11750
