122
365_5_01010101.out	Energy:   -9862.8505125
C          5.37070       -4.66600        0.04040
C          5.50460       -5.25270       -1.17300
C          4.31090       -5.89410       -1.61830
C          3.28500       -5.76470       -0.69470
S          3.79150       -4.86660        0.69500
C          1.95840       -6.25800       -0.76020
C          1.34720       -6.99130       -1.76870
C          1.89030       -7.46210       -3.04800
O          1.20660       -8.09780       -3.82480
N          3.19990       -7.20240       -3.41800
C          4.32750       -6.56640       -2.91830
O          5.32900       -6.58850       -3.60540
C         -0.00020       -7.30360       -1.45880
C         -0.41100       -6.82130       -0.24200
S          0.87150       -5.96000        0.55100
C         -1.68130       -6.94180        0.41910
C         -2.71550       -7.62460       -0.10230
N         -3.96690       -7.81710        0.47220
C         -4.46030       -7.33840        1.68720
S         -3.72250       -6.35640        2.77760
C         -5.78380       -7.87680        1.81650
C         -6.08530       -8.64400        0.72790
C         -4.92300       -8.61300       -0.16470
S         -4.70770       -9.33700       -1.61470
C         -7.29860       -9.37320        0.51280
C         -7.70120      -10.10910       -0.57320
C         -8.96340      -10.72700       -0.40730
C         -9.52120      -10.44770        0.83590
S         -8.49790       -9.42050        1.77670
C        -10.73080      -10.91580        1.39460
C        -11.66930      -11.78730        0.85530
C        -11.70600      -12.42070       -0.46880
O        -12.61950      -13.15280       -0.78870
N        -10.70680      -12.20040       -1.40340
C         -9.49310      -11.53700       -1.51080
O         -8.88560      -11.65110       -2.55440
C        -12.71750      -12.06650        1.76490
C        -12.59090      -11.41930        2.96900
S        -11.15800      -10.43700        3.00320
C        -13.45850      -11.53110        4.10500
C        -13.29410      -10.77260        5.20340
N        -14.00500      -10.84060        6.39270
C        -14.83440      -11.86690        6.85520
S        -15.33270      -13.20120        6.04130
C        -15.15760      -11.53020        8.21260
C        -14.56640      -10.34760        8.55210
C        -13.81680       -9.87760        7.38470
S        -12.90320       -8.53330        7.20660
C        -14.60910       -9.68940        9.82360
C        -14.31270       -8.38710       10.13430
C        -14.43590       -8.08820       11.51230
C        -14.81790       -9.20140       12.25460
S        -15.06040      -10.58560       11.24720
C        -14.94700       -9.33040       13.65510
C        -14.79310       -8.36260       14.64180
C        -14.52520       -6.92410       14.51290
O        -14.49160       -6.20330       15.48830
N        -14.29400       -6.33970       13.27820
C        -14.16310       -6.71430       11.94940
O        -13.83660       -5.85600       11.15660
C        -14.92550       -8.90230       15.94200
C        -15.16780      -10.25540       15.95660
S        -15.26690      -10.88610       14.34350
C        -15.28280      -11.15470       17.06960
C        -15.10240      -10.75520       18.34230
N        -15.10420      -11.54590       19.48110
C        -15.25650      -12.93130       19.59320
S        -15.61290      -14.01380       18.41150
C        -15.04620      -13.24080       20.97740
C        -14.79120      -12.09740       21.68020
C        -14.83360      -10.98100       20.73200
S        -14.60910       -9.38320       20.99230
C        -14.49900      -11.99950       23.07790
C        -14.36910      -10.88340       23.86550
C        -14.04630      -11.16900       25.21250
C        -13.92620      -12.53650       25.44170
S        -14.22870      -13.45040       24.00550
C        -13.58090      -13.20910       26.63450
C        -13.27670      -12.67750       27.88340
C        -13.25840      -11.27890       28.33250
O        -12.98000      -10.99360       29.47870
N        -13.56030      -10.23800       27.47050
C        -13.89310      -10.04090       26.13900
O        -14.05710       -8.89780       25.76800
C        -12.94670      -13.68110       28.82290
C        -12.99470      -14.95570       28.31060
S        -13.46050      -14.93610       26.63960
C        -12.71540      -16.21040       28.94990
C        -12.30800      -16.29800       30.22960
N        -12.00370      -17.45280       30.93400
C        -12.04220      -18.78100       30.52040
S        -12.47520      -19.38460       29.06030
C        -11.61380      -19.56470       31.66370
C        -11.33990      -18.73870       32.69160
C        -11.57580      -17.37680       32.26760
S        -11.39230      -16.00280       33.13310
H          6.11660       -4.12100        0.59460
H          6.40810       -5.25200       -1.76620
H          3.39720       -7.60690       -4.32860
H         -0.61920       -7.87050       -2.13970
H         -1.76760       -6.45470        1.38320
H         -2.64000       -8.12160       -1.06740
H         -6.41240       -7.67610        2.66940
H         -7.11500      -10.22030       -1.47550
H        -10.90450      -12.71180       -2.25860
H        -13.53190      -12.73210        1.51580
H        -14.24060      -12.27920        4.04430
H        -12.53570       -9.99130        5.23030
H        -15.78490      -12.14940        8.83390
H        -14.01070       -7.64700        9.40630
H        -14.09860       -5.34860       13.38680
H        -14.82930       -8.28310       16.82270
H        -15.48320      -12.19340       16.83470
H        -14.90200       -9.71280       18.58360
H        -15.09580      -14.24680       21.36280
H        -14.49560       -9.87240       23.50270
H        -13.49890       -9.34700       27.95480
H        -12.68420      -13.43580       29.84220
H        -12.84090      -17.10080       28.34510
H        -12.17390      -15.41080       30.84620
H        -11.54670      -20.64060       31.62980
H        -10.99950      -18.98900       33.68360
