242
365_466_01010101.out	Energy:   -9537.3779766
C         -2.32690       10.09140      -12.47420
C         -1.13790       10.43700      -13.02560
C         -0.01960       10.00910      -12.25280
C         -0.41900        9.33480      -11.10690
S         -2.14310        9.24370      -10.99270
C          0.38140        8.72740      -10.10920
C          1.76590        8.65590      -10.01560
C          2.79350        9.21380      -10.89910
O          3.97670        9.07410      -10.65720
N          2.45750        9.92410      -12.04010
C          1.32420       10.32070      -12.73830
O          1.49900       10.94330      -13.76760
C          2.18360        7.92460       -8.87480
C          1.14560        7.45020       -8.11340
S         -0.38840        7.90800       -8.79720
C          1.21730        6.66600       -6.91710
C          0.10160        6.28510       -6.25520
C         -0.00700        5.49620       -5.04920
C         -1.26730        5.14640       -4.56920
C         -1.40630        4.44420       -3.32640
C         -0.22080        4.13880       -2.56440
C          1.05080        4.50480       -3.10070
C          1.15300        5.14090       -4.29410
C         -0.33040        3.49280       -1.34510
C         -1.58010        3.10970       -0.81810
C         -2.76440        3.36780       -1.59910
C         -4.00930        2.97590       -1.09880
C         -4.13540        2.35250        0.14710
C         -2.94990        2.09910        0.93020
C         -1.70300        2.48120        0.42280
C         -3.08310        1.47530        2.18500
C         -4.32300        1.10330        2.68360
C         -5.50560        1.35670        1.90300
C         -5.38760        1.96830        0.66370
C         -6.77080        0.96730        2.43680
C         -6.86200        0.36950        3.65600
C         -5.69550        0.11900        4.42560
C         -4.46820        0.47330        3.95600
C         -2.63580        4.01770       -2.84220
C         -2.44280        5.54970       -5.34630
C         -3.47200        6.27470       -4.87000
C         -4.47850        6.85700       -5.71830
C         -4.45070        7.01930       -7.08100
C         -5.53420        7.77650       -7.58770
C         -6.40200        8.17730       -6.57770
S         -5.87430        7.62100       -5.02770
C         -7.54970        8.99480       -6.66610
C         -8.06850        9.65110       -7.77560
C         -7.55480        9.71870       -9.14600
O         -8.01100       10.51770       -9.94290
N         -6.52730        8.89780       -9.58090
C         -5.54240        8.09820       -9.01730
O         -4.66570        7.69370       -9.75700
C         -9.17360       10.47090       -7.43390
C         -9.47860       10.45820       -6.09680
S         -8.42600        9.38450       -5.22430
C        -10.34700       11.38710       -5.43390
C        -10.40050       11.58210       -4.10310
C        -11.03290       12.75830       -3.49330
C        -10.76850       14.04050       -3.94910
C        -11.47590       15.16040       -3.38940
C        -12.44170       14.92570       -2.34590
C        -12.63360       13.59320       -1.87530
C        -11.95060       12.55470       -2.42360
C        -13.15510       15.98800       -1.81430
C        -12.96490       17.30790       -2.26610
C        -11.97880       17.55170       -3.28960
C        -11.77540       18.85880       -3.74120
C        -12.51340       19.93330       -3.23380
C        -13.50420       19.68710       -2.21350
C        -13.69900       18.38080       -1.75380
C        -14.25010       20.77090       -1.71190
C        -14.05520       22.06320       -2.17570
C        -13.06540       22.30960       -3.19160
C        -12.32270       21.25090       -3.69280
C        -12.88220       23.64780       -3.65360
C        -13.62520       24.67020       -3.14910
C        -14.60220       24.42680       -2.14790
C        -14.81020       23.16720       -1.67690
C        -11.25300       16.46280       -3.81260
C         -9.78290       14.26030       -5.01480
C         -8.57260       13.67000       -5.03710
C         -7.72290       13.58920       -6.19220
C         -6.74930       12.64400       -6.39750
C         -6.26360       12.60570       -7.72950
C         -6.85950       13.57830       -8.52360
S         -8.00910       14.51630       -7.63250
C         -6.66510       13.84030       -9.89890
C         -6.06390       13.02930      -10.85390
C         -5.36980       11.75600      -10.66960
O         -5.07570       11.04440      -11.61110
N         -4.91900       11.36590       -9.41320
C         -5.29440       11.57040       -8.09440
O         -4.81900       10.82490       -7.25660
C         -6.17250       13.57360      -12.15720
C         -6.79330       14.79680      -12.18870
S         -7.32170       15.27520      -10.60400
C         -6.97690       15.65450      -13.32520
C         -7.20920       16.97920      -13.22160
C         -7.35260       17.91260      -14.32830
C         -8.01570       17.59990      -15.50790
C         -8.10680       18.58560      -16.55800
C         -7.38660       19.82750      -16.41240
C         -6.69900       20.08500      -15.18910
C         -6.72420       19.18450      -14.17470
C         -7.41260       20.77000      -17.42700
C         -8.15960       20.57320      -18.60470
C         -8.95230       19.37510      -18.71740
C         -9.73970       19.18280      -19.85530
C         -9.76630       20.11940      -20.89440
C         -8.96560       21.31510      -20.78470
C         -8.18480       21.51030      -19.64000
C         -8.99680       22.25370      -21.83350
C         -9.77590       22.05470      -22.96380
C        -10.57270       20.86090      -23.07410
C        -10.55120       19.92850      -22.04750
C        -11.36510       20.67610      -24.24680
C        -11.37150       21.60590      -25.24060
C        -10.58700       22.78410      -25.13110
C         -9.81550       23.00140      -24.03120
C         -8.90820       18.42330      -17.67840
C         -8.67600       16.30790      -15.63110
C         -8.71000       15.53820      -16.73920
C         -9.41880       14.29190      -16.82160
C        -10.05620       13.58520      -15.83260
C        -10.69010       12.40610      -16.29370
C        -10.53370       12.23140      -17.66430
S         -9.59260       13.50550      -18.36070
C        -11.06580       11.22300      -18.49770
C        -11.79480       10.09160      -18.14970
C        -12.20960        9.61610      -16.82600
O        -12.79830        8.56220      -16.69120
N        -11.96760       10.36090      -15.68160
C        -11.40430       11.57520      -15.31940
O        -11.50730       11.91500      -14.15800
C        -12.16890        9.33370      -19.28590
C        -11.75210        9.87740      -20.47620
S        -10.85240       11.34170      -20.21160
C        -12.02950        9.38690      -21.79180
C        -11.70660       10.05920      -22.91900
C        -12.01460        9.65550      -24.27560
C        -11.93250       10.57720      -25.30890
C        -12.25430       10.19670      -26.65370
C        -12.61220        8.82640      -26.92400
C        -12.64580        7.90280      -25.83610
C        -12.37650        8.30300      -24.56910
C        -12.93000        8.43560      -28.21330
C        -12.93880        9.35040      -29.28530
C        -12.61220       10.72880      -29.01570
C        -12.64210       11.65410      -30.06330
C        -12.98180       11.27540      -31.36610
C        -13.30430        9.89470      -31.63590
C        -13.27210        8.96930      -30.58670
C        -13.64720        9.51990      -32.94870
C        -13.68430       10.44440      -33.98230
C        -13.36390       11.82170      -33.71300
C        -13.02170       12.20360      -32.42430
C        -13.41060       12.75580      -34.79140
C        -13.74950       12.35760      -36.04790
C        -14.06490       10.99900      -36.31350
C        -14.03360       10.07410      -35.31570
C        -12.27960       11.10870      -27.70140
C        -11.54050       11.97280      -25.02270
C        -10.49310       12.57830      -25.56960
H         -3.31350       10.29350      -12.85470
H         -1.01870       10.97650      -13.95440
H          3.29530       10.22950      -12.52610
H          3.22830        7.76630       -8.64660
H          2.21350        6.39300       -6.58430
H         -0.84030        6.62870       -6.67310
H          1.93930        4.26390       -2.52660
H          2.12930        5.41540       -4.67680
H          0.56750        3.26890       -0.77770
H         -4.90130        3.16910       -1.68670
H         -0.81100        2.28900        1.01060
H         -2.19050        1.28520        2.77280
H         -6.27860        2.16010        0.07390
H         -7.66040        1.16030        1.84610
H         -7.82680        0.07680        4.05540
H         -5.79820       -0.35910        5.39350
H         -3.57470        0.28340        4.54160
H         -3.53460        4.17830       -3.42760
H         -2.41400        5.31520       -6.40690
H         -3.53020        6.52480       -3.81540
H         -3.66380        6.65640       -7.72710
H         -6.31380        9.08340      -10.55920
H         -9.68260       11.08170       -8.16640
H        -10.87170       12.07100       -6.09600
H         -9.93280       10.87220       -3.42640
H        -13.34400       13.42550       -1.07290
H        -12.11430       11.54070       -2.07560
H        -13.88300       15.80200       -1.03080
H        -11.03210       19.04390       -4.51040
H        -14.44210       18.19500       -0.98470
H        -14.99580       20.58310       -0.94570
H        -11.57670       21.43540       -4.45960
H        -12.13520       23.83060       -4.41900
H        -13.48090       25.68420       -3.50530
H        -15.17980       25.26070       -1.76480
H        -15.55590       22.97720       -0.91200
H        -10.50920       16.66620       -4.57560
H        -10.09050       14.88160       -5.85170
H         -8.24940       13.07070       -4.19010
H         -6.41530       11.94430       -5.64390
H         -4.33340       10.53680       -9.49290
H         -5.76820       13.07260      -13.02550
H         -6.84160       15.18900      -14.29690
H         -7.21380       17.42770      -12.23030
H         -6.17380       21.02780      -15.08010
H         -6.21780       19.39520      -13.23890
H         -6.86260       21.69770      -17.30450
H        -10.33810       18.28100      -19.94010
H         -7.58500       22.41090      -19.55520
H         -8.39480       23.15310      -21.74950
H        -11.15190       19.02790      -22.12880
H        -11.96370       19.77460      -24.32700
H        -11.97600       21.45890      -26.12880
H        -10.61240       23.50800      -25.93800
H         -9.21460       23.90070      -23.94450
H         -9.54810       17.55360      -17.77260
H         -9.15430       15.94420      -14.72430
H         -8.17940       15.84140      -17.63600
H        -10.08220       13.87060      -14.79040
H        -12.36800        9.90110      -14.86930
H        -12.74410        8.42230      -19.20310
H        -12.56680        8.44430      -21.82980
H        -11.19680       11.01330      -22.81110
H        -12.89990        6.86910      -26.04580
H        -12.40510        7.58250      -23.75980
H        -13.19640        7.40110      -28.40630
H        -12.39730       12.69200      -29.86050
H        -13.51660        7.93120      -30.78920
H        -13.88940        8.48110      -33.15040
H        -12.77970       13.24180      -32.21950
H        -13.16940       13.79330      -34.58480
H        -13.78330       13.07290      -36.86220
H        -14.33110       10.71030      -37.32430
H        -14.27420        9.03500      -35.51530
H        -12.05300       12.15300      -27.51520
H        -12.15970       12.50400      -24.30350
H         -9.83440       12.07680      -26.26620
H        -10.23570       13.60010      -25.32630
