226
365_305_01010101.out	Energy:   -8760.8958484
C        -16.69720       -3.74920      -21.33260
C        -15.90750       -4.84680      -21.25590
C        -15.61690       -5.23390      -19.91410
C        -16.21780       -4.38650      -18.99480
S        -17.12280       -3.13780      -19.78050
C        -16.17340       -4.42970      -17.58040
C        -15.51410       -5.33140      -16.75300
C        -14.68420       -6.49010      -17.10120
O        -14.17810       -7.18260      -16.24070
N        -14.44610       -6.84040      -18.42020
C        -14.77250       -6.40880      -19.69840
O        -14.32710       -7.04790      -20.63110
C        -15.71060       -5.03830      -15.38240
C        -16.50310       -3.93780      -15.15920
S        -17.02540       -3.23770      -16.66140
C        -16.91650       -3.34660      -13.92150
C        -16.54140       -3.80460      -12.70420
C        -16.91830       -3.25200      -11.42400
C        -16.39650       -3.82250      -10.28170
C        -16.72840       -3.31710       -9.00100
C        -16.34150       -3.69260       -7.72120
C        -15.43240       -4.79480       -7.27300
C        -16.11630       -6.17620       -7.35010
N        -16.54450       -6.46370       -8.71440
C        -14.10800       -4.85020       -8.05260
N        -13.18450       -5.71990       -7.32810
C        -17.03100       -2.80920       -6.79840
C        -17.02400       -2.75730       -5.45240
C        -17.85600       -1.76490       -4.70180
C        -18.65300       -0.83180       -5.57380
C        -18.63800       -0.89780       -6.91900
C        -17.84610       -1.87270       -7.58620
C        -17.65270       -2.18460       -8.91640
C        -18.17730       -1.61880      -10.10990
C        -17.81830       -2.13130      -11.31440
C        -18.77300       -2.49920       -3.75490
C        -18.98260       -2.25160       -2.43710
C        -19.93020       -3.13470       -1.84080
C        -20.42670       -4.05230       -2.75430
S        -19.73390       -3.82290       -4.32530
C        -21.35870       -5.09730       -2.55100
C        -21.99730       -5.48250       -1.37770
C        -21.91980       -4.90180       -0.03260
O        -22.55630       -5.36690        0.89120
N        -21.12500       -3.79820        0.23570
C        -20.23250       -2.96300       -0.41900
O        -19.70910       -2.08300        0.23560
C        -22.83670       -6.60470       -1.57280
C        -22.84820       -7.07050       -2.86570
S        -21.81020       -6.11200       -3.87750
C        -23.55540       -8.18560       -3.42260
C        -24.25560       -9.07650       -2.68340
C        -24.95750      -10.23560       -3.19080
C        -25.23430      -10.42150       -4.52740
C        -25.89920      -11.59450       -4.95960
C        -26.28090      -12.01260       -6.22540
C        -26.09820      -11.25470       -7.50470
C        -25.18100      -11.99180       -8.49500
N        -23.85490      -12.15530       -7.90700
C        -27.45180      -10.94060       -8.16640
N        -27.22880      -10.09150       -9.33420
C        -26.89100      -13.32070       -6.07220
C        -27.41040      -14.18390       -6.96730
C        -27.97480      -15.50980       -6.54970
C        -27.93600      -15.77130       -5.07210
C        -27.41300      -14.89520       -4.19270
C        -26.87010      -13.65920       -4.63780
C        -26.27220      -12.60720       -3.97420
C        -25.99410      -12.37680       -2.60020
C        -25.36970      -11.22960       -2.23010
C        -29.37990      -15.62720       -7.08670
C        -30.54300      -15.38940       -6.42830
C        -31.69910      -15.57550       -7.24170
C        -31.36600      -15.94560       -8.53580
S        -29.64930      -16.06250       -8.74070
C        -32.21560      -16.23940       -9.62760
C        -33.60410      -16.27840       -9.66970
C        -34.58140      -15.97880       -8.61820
O        -35.77530      -16.06600       -8.82440
N        -34.18280      -15.56930       -7.35490
C        -33.01450      -15.35980       -6.63680
O        -33.12700      -14.99460       -5.48350
C        -34.08370      -16.66330      -10.94520
C        -33.08930      -16.90050      -11.86270
S        -31.51950      -16.65800      -11.15610
C        -33.25420      -17.29990      -13.22620
C        -32.24030      -17.37450      -14.11800
C        -32.35390      -17.78710      -15.50010
C        -33.43730      -18.49520      -15.97270
C        -33.50190      -18.89600      -17.32940
C        -34.44490      -19.62210      -18.04670
C        -35.68800      -20.32550      -17.59740
C        -35.32790      -21.71330      -17.00910
N        -34.97000      -22.63210      -18.08230
C        -36.53540      -19.53530      -16.59090
N        -37.82050      -20.21330      -16.43410
C        -33.91790      -19.77650      -19.39060
C        -34.39270      -20.46870      -20.44420
C        -33.57500      -20.64530      -21.68510
C        -32.33230      -19.79460      -21.73810
C        -31.89460      -19.08340      -20.68150
C        -32.63040      -19.07590      -19.46370
C        -32.38860      -18.54140      -18.21420
C        -31.28690      -17.80670      -17.69990
C        -31.27110      -17.45280      -16.38950
C        -33.15860      -22.09930      -21.73820
C        -33.08510      -22.95230      -20.68510
C        -32.62350      -24.25150      -21.03760
C        -32.32910      -24.34170      -22.39070
S        -32.64040      -22.84580      -23.21160
C        -31.83280      -25.44590      -23.12080
C        -31.47310      -26.70830      -22.66030
C        -31.53520      -27.26290      -21.30440
O        -31.15540      -28.39210      -21.06690
N        -32.04760      -26.53100      -20.24220
C        -32.56040      -25.26880      -19.98950
O        -32.95140      -25.04290      -18.85830
C        -30.99110      -27.53670      -23.70220
C        -30.98480      -26.92880      -24.93480
S        -31.57940      -25.29950      -24.82470
C        -30.57980      -27.44120      -26.20920
C        -30.03270      -28.66340      -26.40340
C        -29.61920      -29.20830      -27.67860
C        -29.90670      -28.59900      -28.88090
C        -29.47670      -29.18240      -30.09550
C        -29.64560      -28.77220      -31.41130
C        -30.37320      -27.54390      -31.87160
C        -29.46010      -26.62090      -32.69830
N        -30.00690      -25.26750      -32.69720
C        -31.64820      -27.92020      -32.64520
N        -32.55500      -28.61940      -31.74060
C        -28.99870      -29.76280      -32.24780
C        -28.86730      -29.86870      -33.58730
C        -28.14350      -31.01000      -34.21320
C        -27.58340      -32.01270      -33.25510
C        -27.72490      -31.89670      -31.91960
C        -28.42530      -30.79300      -31.36190
C        -28.72280      -30.43190      -30.06200
C        -28.44400      -31.03950      -28.80840
C        -28.88240      -30.44770      -27.66700
H        -17.05820       -3.25820      -22.22090
H        -15.52170       -5.39410      -22.10430
H        -13.85490       -7.66490      -18.46650
H        -15.26620       -5.64420      -14.60570
H        -17.56370       -2.48050      -14.01320
H        -15.88440       -4.66940      -12.65330
H        -15.73500       -4.67680      -10.36570
H        -15.18370       -4.62440       -6.21620
H        -16.96350       -6.20850       -6.64890
H        -15.37910       -6.92880       -7.05280
H        -17.42120       -5.98820       -8.89790
H        -16.69480       -7.46020       -8.81490
H        -13.69700       -3.83710       -8.17600
H        -14.27530       -5.28860       -9.04000
H        -12.85730       -5.24220       -6.49530
H        -12.38280       -5.91260       -7.91730
H        -16.44260       -3.44270       -4.84380
H        -17.18030       -1.16090       -4.07560
H        -19.25900       -0.10480       -5.04650
H        -19.23130       -0.20670       -7.50890
H        -18.86120       -0.77900      -10.04560
H        -18.22130       -1.69480      -12.22110
H        -18.49230       -1.47330       -1.86970
H        -21.20410       -3.53460        1.21340
H        -23.40890       -7.03050       -0.76080
H        -23.47390       -8.30490       -4.49860
H        -24.27630       -8.95670       -1.60330
H        -24.95390       -9.67210       -5.26010
H        -25.61960      -10.29410       -7.26750
H        -25.14020      -11.41300       -9.43140
H        -25.57980      -12.98570       -8.72130
H        -23.46230      -11.23830       -7.72010
H        -23.25700      -12.61840       -8.58290
H        -28.11180      -10.45060       -7.43420
H        -27.93620      -11.86220       -8.50350
H        -26.91230       -9.17920       -9.02320
H        -28.10900       -9.96820       -9.82180
H        -27.45900      -13.97770       -8.03100
H        -27.37230      -16.28370       -7.05300
H        -28.35420      -16.71770       -4.75050
H        -27.39650      -15.12540       -3.13250
H        -26.28330      -13.11740       -1.86240
H        -25.15050      -11.04160       -1.18440
H        -30.61460      -15.09880       -5.38980
H        -34.99340      -15.38920       -6.76990
H        -35.13970      -16.75020      -11.15850
H        -34.27440      -17.52770      -13.52110
H        -31.24600      -17.07610      -13.79310
H        -34.22940      -18.77990      -15.29110
H        -36.31860      -20.50440      -18.47940
H        -36.19660      -22.08260      -16.44470
H        -34.47730      -21.61510      -16.32850
H        -35.81310      -23.01580      -18.49350
H        -34.42450      -23.40360      -17.71290
H        -36.66620      -18.50030      -16.94220
H        -36.05540      -19.51330      -15.60880
H        -38.35020      -20.12720      -17.29490
H        -38.34410      -19.75860      -15.69490
H        -35.33390      -21.00720      -20.40940
H        -34.19680      -20.43750      -22.56750
H        -31.77620      -19.83770      -22.66720
H        -30.97500      -18.51080      -20.74700
H        -30.46490      -17.54620      -18.35810
H        -30.43290      -16.89740      -15.98190
H        -33.36250      -22.69400      -19.67240
H        -32.04840      -27.09180      -19.39550
H        -30.67050      -28.55190      -23.51600
H        -30.72910      -26.76770      -27.04730
H        -29.86310      -29.30540      -25.54280
H        -30.47620      -27.67690      -28.91470
H        -30.68770      -26.97750      -30.98540
H        -29.34360      -27.00430      -33.72470
H        -28.47110      -26.58520      -32.23110
H        -30.87260      -25.25180      -33.22530
H        -29.34840      -24.64750      -33.15510
H        -31.39670      -28.54060      -33.52090
H        -32.14970      -27.01330      -32.99850
H        -32.09310      -29.45660      -31.39890
H        -33.38270      -28.90070      -32.25440
H        -29.27790      -29.13640      -34.27470
H        -27.33520      -30.60890      -34.84090
H        -28.82300      -31.51190      -34.91630
H        -27.05220      -32.84740      -33.69790
H        -27.30600      -32.64450      -31.25390
H        -27.88750      -31.97000      -28.77490
H        -28.67640      -30.90370      -26.70420
