242
365_203_01010101.out	Energy:   -9070.3481653
C        -37.28670       17.55430      -34.40260
C        -37.21810       16.24800      -34.75390
C        -35.94850       15.66010      -34.47550
C        -35.07470       16.57400      -33.90510
S        -35.81440       18.12770      -33.71900
C        -33.73460       16.38580      -33.48880
C        -32.95280       15.23800      -33.54980
C        -33.28660       13.90110      -34.05370
O        -32.47120       13.00050      -34.03490
N        -34.54010       13.61280      -34.56780
C        -35.74860       14.25040      -34.81160
O        -36.63420       13.58840      -35.31570
C        -31.65170       15.45190      -33.03560
C        -31.43640       16.73360      -32.58890
S        -32.85930       17.70850      -32.79960
C        -30.25850       17.31610      -32.01830
C        -29.10050       16.64340      -31.82240
C        -27.87870       17.18150      -31.26990
C        -26.77630       16.35830      -31.17240
C        -25.55390       16.85260      -30.65830
C        -24.32080       16.24270      -30.48090
C        -23.98800       14.81070      -30.77800
C        -22.86420       14.67970      -31.81830
N        -23.19610       15.47250      -32.99860
C        -23.63010       14.04880      -29.49040
N        -24.80190       14.02370      -28.62200
C        -23.42910       17.24450      -29.92710
C        -22.12910       17.19840      -29.57030
C        -21.42230       18.38870      -29.00950
C        -22.26980       19.62790      -28.89630
C        -23.56730       19.65490      -29.25510
C        -24.19800       18.49290      -29.77680
C        -25.47940       18.24600      -30.22590
C        -26.63400       19.06760      -30.32700
C        -27.78460       18.55190      -30.83060
C        -20.80010       18.11170      -27.65910
C        -21.10310       17.06790      -26.87850
C        -20.51900       16.85040      -25.57660
C        -19.75530       17.70420      -24.82670
C        -19.33980       17.15920      -23.58590
C        -19.80000       15.85900      -23.40740
S        -20.74630       15.33500      -24.75950
C        -19.57080       14.97840      -22.32600
C        -18.86420       15.20890      -21.14980
C        -18.17020       16.41430      -20.68510
O        -17.62160       16.44630      -19.60180
N        -18.10420       17.55820      -21.46420
C        -18.52550       18.00270      -22.70700
O        -18.20150       19.12680      -23.03630
C        -18.84250       14.06820      -20.31450
C        -19.50780       12.98360      -20.83410
S        -20.19710       13.36310      -22.38430
C        -19.60650       11.69700      -20.22070
C        -20.21370       10.61680      -20.76480
C        -20.26450        9.29440      -20.18360
C        -20.83640        8.26430      -20.90270
C        -20.84620        6.94350      -20.39100
C        -21.31170        5.74320      -20.91410
C        -22.00460        5.49380      -22.22050
C        -23.33080        6.27510      -22.29920
N        -24.20380        5.64490      -23.28210
C        -21.07130        5.82540      -23.40000
N        -21.64990        5.34320      -24.65290
C        -21.00490        4.71090      -19.94400
C        -21.21940        3.37890      -19.96330
C        -20.74880        2.49810      -18.85330
C        -20.09540        3.22490      -17.70760
C        -19.91370        4.55920      -17.69820
C        -20.33740        5.35010      -18.80000
C        -20.24730        6.69840      -19.07930
C        -19.69490        7.78210      -18.34700
C        -19.70400        9.02900      -18.88220
C        -21.81130        1.57720      -18.30040
C        -23.11710        1.61080      -18.58610
C        -24.06910        0.70480      -17.99190
C        -25.36410        0.48220      -18.37390
C        -26.02340       -0.50980      -17.60060
C        -25.20130       -1.02160      -16.60530
S        -23.63110       -0.29560      -16.63960
C        -25.48470       -1.99810      -15.62460
C        -26.62580       -2.77440      -15.46110
C        -27.87040       -2.77390      -16.23660
O        -28.76860       -3.55270      -15.98810
N        -28.07980       -1.86930      -17.26740
C        -27.40700       -0.85580      -17.93500
O        -28.00530       -0.27960      -18.82140
C        -26.50690       -3.66680      -14.36810
C        -25.31330       -3.56270      -13.69560
S        -24.29040       -2.36090      -14.42540
C        -24.90040       -4.29510      -12.53730
C        -23.79880       -3.98180      -11.81770
C        -23.31840       -4.65180      -10.63080
C        -22.36620       -4.02080       -9.85760
C        -21.87140       -4.62590       -8.67740
C        -20.95770       -4.20560       -7.71930
C        -20.12490       -2.96150       -7.64050
C        -18.87630       -3.09130       -8.53970
N        -17.92050       -4.02040       -7.93840
C        -20.88950       -1.67600       -7.98600
N        -20.04570       -0.52930       -7.65370
C        -20.78800       -5.30660       -6.79320
C        -19.96340       -5.44530       -5.73570
C        -19.82760       -6.74780       -5.02160
C        -20.82010       -7.79670       -5.44750
C        -21.67090       -7.62010       -6.47720
C        -21.67150       -6.40140       -7.21150
C        -22.34220       -5.97180       -8.34010
C        -23.31980       -6.59900       -9.15800
C        -23.80150       -5.95390      -10.25180
C        -18.42410       -7.29090       -5.22910
C        -17.66490       -6.94460       -6.27610
C        -16.32260       -7.40860       -6.51560
C        -15.54640       -8.27050       -5.78770
C        -14.24450       -8.45290       -6.32060
C        -14.04560       -7.70810       -7.47820
S        -15.45890       -6.80110       -7.89500
C        -12.89240       -7.60890       -8.28740
C        -11.65080       -8.21580       -8.12540
C        -11.19180       -9.14290       -7.08670
O        -10.05940       -9.58390       -7.09060
N        -12.02940       -9.55570       -6.06190
C        -13.32620       -9.34880       -5.61500
O        -13.66830       -9.93920       -4.60900
C        -10.74000       -7.84480       -9.14210
C        -11.26550       -6.97520      -10.06860
S        -12.92010       -6.59800       -9.69230
C        -10.64870       -6.38680      -11.21910
C         -9.34420       -6.55260      -11.54270
C         -8.66070       -5.98360      -12.68000
C         -7.30090       -6.18650      -12.79840
C         -6.58110       -5.64670      -13.88960
C         -5.23500       -5.69490      -14.22970
C         -4.08820       -6.33640      -13.50420
C         -3.88860       -5.69370      -12.12050
N         -2.61070       -6.12550      -11.56070
C         -4.22690       -7.87400      -13.42950
N         -5.08280       -8.30720      -12.32820
C         -5.08730       -4.94860      -15.46440
C         -3.99860       -4.67720      -16.21240
C         -4.08790       -3.84480      -17.45310
C         -5.47650       -3.40590      -17.80910
C         -6.55410       -3.69310      -17.05220
C         -6.41420       -4.45300      -15.85830
C         -7.31040       -4.87710      -14.89740
C         -8.71140       -4.68910      -14.75380
C         -9.35760       -5.21960      -13.68380
C         -3.12930       -2.67500      -17.28990
C         -3.50730       -1.43960      -17.01190
H        -38.12630       18.22110      -34.50700
H        -38.02370       15.68240      -35.20010
H        -34.58670       12.64270      -34.86470
H        -30.91670       14.66010      -33.01050
H        -30.34410       18.36320      -31.74690
H        -29.05180       15.59550      -32.10830
H        -26.84190       15.32530      -31.49890
H        -24.88620       14.33470      -31.19390
H        -22.73370       13.61570      -32.07490
H        -21.91700       15.05000      -31.41290
H        -24.08730       15.15780      -33.36780
H        -22.48910       15.31150      -33.70760
H        -22.76940       14.52140      -28.98980
H        -23.36060       13.01640      -29.73690
H        -25.06010       14.97870      -28.39350
H        -24.56700       13.54230      -27.76120
H        -21.52410       16.30470      -29.68100
H        -20.58540       18.61800      -29.69140
H        -21.77390       20.50230      -28.49200
H        -24.14560       20.56800      -29.15610
H        -26.58500       20.10190      -30.00320
H        -28.66160       19.18430      -30.90720
H        -20.09200       18.86530      -27.32940
H        -21.80800       16.31350      -27.21490
H        -19.48730       18.70960      -25.11920
H        -17.57010       18.28050      -20.99040
H        -18.33520       14.06610      -19.36000
H        -19.11830       11.63020      -19.25330
H        -20.68520       10.72350      -21.73950
H        -21.26660        8.46870      -21.87750
H        -22.25640        4.42650      -22.28540
H        -23.13790        7.33140      -22.54680
H        -23.82690        6.23860      -21.32350
H        -23.73990        5.68310      -24.18710
H        -25.06600        6.17570      -23.34200
H        -20.08560        5.36790      -23.22010
H        -20.93540        6.90820      -23.48270
H        -21.65670        4.32910      -24.64280
H        -21.06360        5.64670      -25.42200
H        -21.70150        2.88390      -20.80090
H        -19.98140        1.83520      -19.29340
H        -19.77760        2.60470      -16.87770
H        -19.43460        5.04310      -16.85320
H        -19.26590        7.60140      -17.36710
H        -19.27950        9.85120      -18.31830
H        -21.43550        0.85240      -17.58320
H        -23.52170        2.31620      -19.30550
H        -25.85520        0.98930      -19.19250
H        -29.00870       -1.99220      -17.65970
H        -27.30040       -4.34830      -14.09510
H        -25.55260       -5.11180      -12.24400
H        -23.21820       -3.11500      -12.12810
H        -22.00010       -3.04720      -10.16350
H        -19.76910       -2.85330       -6.60610
H        -18.42820       -2.09370       -8.66340
H        -19.16330       -3.47560       -9.52310
H        -17.47440       -3.56290       -7.15050
H        -17.20100       -4.23480       -8.61990
H        -21.84070       -1.64910       -7.43320
H        -21.10640       -1.62560       -9.05640
H        -19.94130       -0.47510       -6.64600
H        -20.50590        0.31780       -7.96720
H        -19.30640       -4.64740       -5.40460
H        -19.94350       -6.57310       -3.94110
H        -20.78560       -8.72810       -4.89480
H        -22.35730       -8.41030       -6.76440
H        -23.67310       -7.59150       -8.89910
H        -24.54390       -6.43500      -10.87840
H        -18.08460       -8.00360       -4.48510
H        -18.04440       -6.23490       -7.00760
H        -15.86520       -8.77530       -4.88670
H        -11.54210      -10.19830       -5.44460
H         -9.73060       -8.23020       -9.16460
H        -11.29790       -5.76970      -11.83180
H         -8.72050       -7.16020      -10.89130
H         -6.77630       -6.77620      -12.05490
H         -3.17160       -6.13910      -14.07660
H         -4.72700       -5.93990      -11.45350
H         -3.85490       -4.60650      -12.24250
H         -2.67660       -7.09940      -11.28540
H         -2.41910       -5.57910      -10.72840
H         -3.22420       -8.31620      -13.33470
H         -4.66950       -8.22950      -14.36490
H         -4.54700       -8.32550      -11.46830
H         -5.40840       -9.24800      -12.51400
H         -3.00570       -5.02270      -15.94170
H         -3.69190       -4.45170      -18.28360
H         -5.56850       -2.83190      -18.72420
H         -7.54140       -3.35300      -17.34800
H         -9.25300       -4.12150      -15.50320
H        -10.42710       -5.07490      -13.58080
H         -2.07860       -2.93200      -17.38570
H         -4.54630       -1.16010      -16.89740
H         -2.78670       -0.64210      -16.89070
