186
365_775_01010101.out	Energy:   -9197.0408319
C          0.49820        8.15200       -3.03140
C          1.22440        9.25400       -2.71570
C          2.16010        9.02130       -1.66670
C          2.09560        7.70980       -1.20730
S          0.90510        6.79450       -2.06210
C          2.79370        7.10980       -0.13930
C          3.82460        7.62090        0.64550
C          4.48300        8.92870        0.56930
O          5.43460        9.20150        1.27380
N          4.02240        9.91750       -0.28740
C          2.98890       10.12460       -1.19620
O          2.82450       11.26450       -1.59190
C          4.23290        6.70940        1.63600
C          3.53040        5.51060        1.64220
S          2.34960        5.51490        0.36430
C          3.74490        4.50580        2.61250
C          3.16190        3.28920        2.90140
C          2.19280        2.48400        2.28350
C          1.52850        2.60480        1.01540
C          0.64470        1.57090        0.91060
C          0.72870        0.75740        2.11130
O         -0.03460       -0.35310        2.25970
C         -0.90230       -0.60610        1.24180
C         -0.98540        0.14720        0.13620
O         -0.20960        1.25220       -0.08510
C          1.67110        1.29570        2.94680
C          2.10030        0.70290        4.20890
C          3.37130        0.35230        4.57820
C          3.31510       -0.43680        5.79740
O          4.44410       -0.90190        6.38340
C          5.60930       -0.58420        5.74100
C          5.66210        0.12480        4.60800
O          4.55930        0.61800        3.96990
C          2.01370       -0.59320        6.16540
C          1.21330        0.13660        5.21330
C         -0.16170        0.33320        5.33530
C         -1.02790       -0.39840        6.15880
C         -2.35300        0.01550        6.11730
C         -2.53940        1.14220        5.28380
S         -1.04510        1.59850        4.51440
C         -3.68280        1.89550        5.08200
C         -5.00050        1.66000        5.53640
C         -5.52530        0.54380        6.33550
O         -6.71020        0.45750        6.58560
N         -4.69280       -0.43570        6.85000
C         -3.34020       -0.73510        6.90440
O         -3.00540       -1.66660        7.60730
C         -5.88890        2.65210        5.13930
C         -5.30530        3.69020        4.40340
S         -3.59920        3.38220        4.17720
C         -5.90940        4.82800        3.87290
C         -7.28490        5.04430        3.84240
C         -7.88790        6.10770        3.18430
C         -7.22450        7.28140        2.66830
C         -8.17310        8.04780        2.07080
C         -9.46270        7.37620        2.16560
O        -10.57090        7.91710        1.59580
C        -10.37770        9.11380        0.96340
C         -9.19660        9.73690        0.89310
O         -8.04730        9.23970        1.44550
C         -9.30480        6.19510        2.83310
C        -10.33870        5.20020        3.12920
C        -11.49670        5.42250        3.82260
C        -12.20520        4.16300        3.99240
O        -13.38700        4.10960        4.65040
C        -13.83840        5.30470        5.13900
C        -13.17660        6.45930        5.00110
O        -11.98170        6.57530        4.35130
C        -11.47940        3.16480        3.41800
C        -10.31000        3.77250        2.83570
C         -9.31990        3.09600        2.12530
C         -8.99460        1.73120        2.18710
C         -7.75900        1.41980        1.62940
C         -7.11930        2.55130        1.07350
S         -8.15210        3.94670        1.14280
C         -5.79000        2.75130        0.76340
C         -4.69240        1.87020        0.88460
C         -4.73840        0.42110        1.08720
O         -3.72580       -0.25860        1.02670
N         -5.92780       -0.24210        1.33130
C         -7.24320        0.05090        1.69770
O         -7.93590       -0.87750        2.05330
C         -3.47130        2.53610        0.80670
C         -3.58060        3.91850        0.60890
S         -5.26210        4.37880        0.44750
C         -2.57900        4.88370        0.61690
C         -2.88360        6.23270        0.44270
C         -2.01640        7.30820        0.51690
C         -0.64570        7.30510        0.97030
C         -0.22360        8.59720        0.97930
C         -1.30230        9.45650        0.50580
O         -1.12050       10.79290        0.37150
C          0.10690       11.25920        0.74010
C          1.08580       10.47880        1.21020
O          0.97000        9.11830        1.34650
C         -2.39520        8.68770        0.21760
C         -3.71060        9.17350       -0.18670
C         -4.35360       10.23730        0.39440
C         -5.66240       10.40470       -0.20980
O         -6.49410       11.40380        0.17610
C         -6.01980       12.18970        1.19340
C         -4.82630       12.01490        1.77110
O         -3.94230       11.04100        1.40940
C         -5.83590        9.43680       -1.14990
C         -4.62460        8.65480       -1.19540
C         -4.41170        7.64480       -2.13190
C         -3.22590        6.98730       -2.48260
C         -3.37070        6.02960       -3.48110
C         -4.70280        5.92340       -3.94380
S         -5.73660        7.04990       -3.11000
C         -5.22890        5.11240       -4.93160
C         -4.59180        4.12050       -5.71370
C         -3.20070        3.66190       -5.67200
O         -2.81290        2.75130       -6.37520
N         -2.26370        4.25840       -4.83790
C         -2.18380        5.29840       -3.93130
O         -1.07560        5.56880       -3.50160
C         -5.45480        3.53210       -6.63040
C         -6.76170        4.03330       -6.59980
S         -6.91150        5.25920       -5.36190
C         -7.80380        3.64620       -7.43420
C         -9.07500        4.21520       -7.41060
C        -10.14420        3.90160       -8.23500
C        -11.33850        4.71600       -8.29200
C        -12.10530        4.24150       -9.30740
C        -11.44180        3.08680       -9.89870
O        -12.01780        2.39970      -10.92090
C        -13.20870        2.89730      -11.35950
C        -13.81170        3.96490      -10.82450
O        -13.29850        4.67640       -9.77200
C        -10.26460        2.85360       -9.24620
C         -9.35960        1.73920       -9.49900
C         -8.96110        1.24590      -10.72660
C         -8.12820        0.08540      -10.50890
O         -7.57760       -0.58930      -11.54510
C         -7.86840       -0.09480      -12.78100
C         -8.63480        0.98970      -12.98440
O         -9.20340        1.71040      -11.98580
C         -8.03650       -0.14230       -9.14750
C         -8.79160        0.86260       -8.52100
H         -0.26260        8.05510       -3.78760
H          1.12870       10.21840       -3.19380
H          4.55040       10.77430       -0.15260
H          5.02060        6.94260        2.33920
H          4.51690        4.79930        3.32270
H          3.53480        2.85840        3.82850
H          1.71620        3.34580        0.26130
H         -1.53250       -1.46580        1.42100
H         -1.68620       -0.04820       -0.66280
H          6.48550       -0.97020        6.24410
H          6.58590        0.36870        4.10070
H          1.64040       -1.10540        7.03620
H         -0.70820       -1.24360        6.75250
H         -5.22470       -1.09450        7.41110
H         -6.93710        2.62060        5.40270
H         -5.26110        5.54120        3.37390
H         -7.93610        4.28570        4.26650
H         -6.17760        7.51240        2.77470
H        -11.28420        9.50620        0.52260
H         -9.04080       10.68230        0.39140
H        -14.78610        5.21780        5.65300
H        -13.53500        7.40100        5.39500
H        -11.73590        2.12050        3.35560
H         -9.59040        0.99980        2.71540
H         -5.75750       -1.23780        1.44240
H         -2.52260        2.03530        0.93520
H         -1.55430        4.56230        0.77100
H         -3.92230        6.46550        0.22100
H         -0.08620        6.43320        1.26730
H          0.20740       12.32880        0.61580
H          2.05660       10.84810        1.50990
H         -6.71340       12.96770        1.48210
H         -4.46080       12.63740        2.57690
H         -6.68990        9.28490       -1.78920
H         -2.26730        7.21830       -2.04100
H         -1.34850        3.84250       -4.98330
H         -5.13640        2.75770       -7.31500
H         -7.57350        2.88000       -8.16670
H         -9.23060        5.03270       -6.70880
H        -11.53480        5.56680       -7.66050
H        -13.62020        2.33710      -12.18860
H        -14.75670        4.35670      -11.17530
H         -7.41710       -0.66340      -13.58310
H         -8.85840        1.37710      -13.96990
H         -7.49800       -0.93730       -8.65930
H         -8.95920        0.94320       -7.45790
