314
365_104_01010101.out	Energy:  -10746.4839475
C        -27.60160       -2.65170       -3.60150
C        -27.69520       -1.40470       -4.12210
C        -26.42480       -0.79970       -4.35460
C        -25.38300       -1.63900       -3.98960
S        -25.96900       -3.14530       -3.37070
C        -23.98690       -1.41190       -4.06470
C        -23.30810       -0.29190       -4.52650
C        -23.83130        0.97100       -5.05930
O        -23.08430        1.85810       -5.42030
N        -25.19310        1.20060       -5.17120
C        -26.39270        0.55090       -4.91830
O        -27.41610        1.14870       -5.18470
C        -21.90310       -0.45320       -4.44280
C        -21.51460       -1.66500       -3.92850
S        -22.89470       -2.64470       -3.53320
C        -20.17070       -2.11390       -3.72060
C        -19.84740       -3.31220       -3.18790
C        -18.50930       -3.81430       -2.94570
C        -17.36440       -3.13120       -3.38980
C        -16.09850       -3.63360       -3.11570
C        -15.98880       -4.88430       -2.43760
C        -17.11340       -5.56740       -2.00240
C        -18.36480       -5.02500       -2.24750
C        -14.58590       -5.23550       -2.37070
C        -13.86390       -4.16330       -3.03450
C        -14.75480       -3.17150       -3.43520
C        -14.27920       -1.87160       -4.01910
C        -15.34230       -0.88900       -4.52130
N        -16.03170       -0.24430       -3.40330
C        -13.38040       -1.11280       -3.00970
N        -12.64490       -0.08200       -3.73120
C        -12.45140       -4.26620       -3.18460
C        -11.82100       -5.34750       -2.64330
C        -12.54240       -6.39140       -1.93000
C        -13.95770       -6.31300       -1.82050
C        -11.64660       -7.34500       -1.47090
C        -12.00550       -8.58130       -0.70450
C        -11.57590       -9.85510       -1.45000
N        -12.14900       -9.84830       -2.79230
C        -11.41120       -8.54610        0.71350
N        -12.01170       -7.43340        1.44170
C        -10.31410       -6.93300       -1.86880
C        -10.41900       -5.71750       -2.60400
C         -9.28730       -5.10460       -3.11920
C         -8.04610       -5.68580       -2.90170
C         -7.91910       -6.87270       -2.16230
C         -9.06540       -7.49560       -1.64720
C         -6.61270       -7.45280       -1.91220
C         -5.42640       -7.20980       -2.55000
C         -4.33570       -7.95990       -2.03700
C         -4.71850       -8.77710       -0.98170
S         -6.40870       -8.62370       -0.64420
C         -3.93230       -9.64430       -0.19030
C         -2.57730       -9.93930       -0.28970
C         -1.58350       -9.44350       -1.24660
O         -0.43110       -9.82710       -1.21430
N         -1.91650       -8.51270       -2.21910
C         -3.01790       -7.78850       -2.65320
O         -2.84630       -7.01360       -3.57310
C         -2.15660      -10.85310        0.70760
C         -3.16210      -11.24480        1.55680
S         -4.66790      -10.49130        1.12580
C         -3.12120      -12.11600        2.69490
C         -2.03150      -12.80370        3.10030
C         -1.96810      -13.65760        4.27150
C         -2.98550      -13.67130        5.23910
C         -2.86530      -14.49830        6.34400
C         -1.72750      -15.33730        6.49740
C         -0.71860      -15.32450        5.54640
C         -0.84330      -14.48360        4.44940
C         -1.89820      -16.07780        7.73380
C         -3.16500      -15.64060        8.30950
C         -3.74630      -14.69500        7.47770
C         -5.05180      -13.98300        7.64820
C         -6.23930      -14.96180        7.61790
N         -6.31630      -15.59600        6.30590
C         -5.08290      -13.15130        8.94270
N         -6.32450      -12.38320        8.98140
C         -3.59330      -16.20920        9.54070
C         -2.80400      -17.15010       10.13030
C         -1.54520      -17.60150        9.54980
C         -1.11160      -17.02300        8.32300
C         -0.99470      -18.58220       10.36420
C          0.28320      -19.34260       10.17440
C          0.25600      -20.17680        8.88340
N         -0.88900      -21.08110        8.91440
C          1.49920      -18.40150       10.19340
N          1.59290      -17.78610       11.51300
C         -1.88780      -18.78480       11.48840
C         -2.99300      -17.90140       11.35500
C         -3.99980      -17.88290       12.30680
C         -3.91680      -18.74990       13.38580
C         -2.84110      -19.64370       13.52710
C         -1.81800      -19.65410       12.56750
C         -2.81020      -20.56650       14.64580
C         -3.59050      -20.55770       15.77070
C         -3.34080      -21.63940       16.65270
C         -2.34340      -22.48020       16.17450
S         -1.72050      -21.92020       14.65870
C         -1.85200      -23.68200       16.73320
C         -2.27410      -24.34550       17.88010
C         -3.28330      -23.96440       18.87220
O         -3.52520      -24.67300       19.82930
N         -3.98760      -22.77530       18.76870
C         -4.12870      -21.71660       17.88540
O         -4.93680      -20.85560       18.17280
C         -1.58590      -25.56890       18.06620
C         -0.65130      -25.83320       17.09700
S         -0.60060      -24.55870       15.91610
C          0.16860      -27.00440       17.01190
C          1.18160      -27.18050       16.13830
C          1.98010      -28.38970       16.03270
C          3.25940      -28.31630       15.45930
C          4.03840      -29.46130       15.36660
C          3.51600      -30.70520       15.82050
C          2.24730      -30.78440       16.37240
C          1.49080      -29.62770       16.48160
C          4.52270      -31.72070       15.58590
C          5.66820      -31.03990       15.00220
C          5.38170      -29.68870       14.86230
C          6.31490      -28.67060       14.28110
C          5.72970      -28.05070       13.00030
N          6.77340      -27.30240       12.30590
C          6.73330      -27.60520       15.32090
N          5.77090      -26.51190       15.42610
C          6.83060      -31.79250       14.67370
C          6.81670      -33.13660       14.90210
C          5.65580      -33.82270       15.45870
C          4.50270      -33.06530       15.80490
C          5.92200      -35.18160       15.54500
C          5.02980      -36.27070       16.05410
C          4.62710      -36.01950       17.52100
N          4.24360      -37.28460       18.13410
C          3.79980      -36.42730       15.13980
N          3.07030      -37.64430       15.48860
C          7.26360      -35.40390       15.04650
C          7.82450      -34.15470       14.66440
C          9.12170      -34.09060       14.17910
C          9.85370      -35.26500       14.06400
C          9.30300      -36.50880       14.41090
C          7.99520      -36.57400       14.91090
C         10.07290      -37.73030       14.25670
C          9.59750      -39.00380       14.10620
C         10.61530      -39.98420       13.97560
C         11.88550      -39.42510       14.04370
S         11.80920      -37.70650       14.24390
C         13.14270      -40.06910       14.00470
C         13.42880      -41.42020       13.83690
C         12.52240      -42.55260       13.62740
O         12.94790      -43.67830       13.45510
N         11.14620      -42.38790       13.62360
C         10.21000      -41.37780       13.78500
O          9.03710      -41.69580       13.74750
C         14.81910      -41.67970       13.88500
C         15.58650      -40.55890       14.09100
S         14.58890      -39.14150       14.21530
C         17.00930      -40.44760       14.23170
C         17.85140      -41.50220       14.15290
C         19.28860      -41.47850       14.32680
C         19.98570      -42.68890       14.17150
C         21.35950      -42.72540       14.34980
C         22.05660      -41.53200       14.69300
C         21.37410      -40.33340       14.84140
C         19.99990      -40.31160       14.65900
C         23.46010      -41.86560       14.83210
C         23.57310      -43.28990       14.55800
C         22.32090      -43.80980       14.26900
C         22.04060      -45.25090       13.96090
C         21.14950      -45.88920       15.03960
N         21.82620      -45.81110       16.33000
C         21.45940      -45.45140       12.54320
N         20.00840      -45.29670       12.50410
C         24.85020      -43.91310       14.64010
C         25.92310      -43.14470       14.97460
C         25.81330      -41.71580       15.24680
C         24.53470      -41.09650       15.16700
C         27.06810      -41.21540       15.56360
C         27.48410      -39.82270       15.93890
C         26.83870      -38.71750       15.07340
N         25.63540      -38.13390       15.66760
C         27.30540      -39.60310       17.45630
N         25.97450      -39.99240       17.90660
C         28.01370      -42.31330       15.51650
C         27.32180      -43.49820       15.15140
C         27.99250      -44.70360       15.03150
C         29.36250      -44.73060       15.27910
C         30.04590      -43.57300       15.64040
C         29.38320      -42.35740       15.76220
H        -28.40640       -3.31730       -3.33680
H        -28.62070       -0.89440       -4.34800
H        -25.36560        2.12320       -5.55940
H        -21.21740        0.32010       -4.75950
H        -19.40310       -1.40630       -4.01990
H        -20.65550       -3.97530       -2.88680
H        -17.49890       -2.23430       -3.97720
H        -17.02020       -6.51480       -1.48310
H        -19.25220       -5.54760       -1.90640
H        -13.64230       -2.12550       -4.87980
H        -16.03970       -1.38780       -5.20980
H        -14.82090       -0.10180       -5.07710
H        -16.48930       -0.93680       -2.82280
H        -16.73600        0.38420       -3.77160
H        -12.70210       -1.80730       -2.49510
H        -14.01310       -0.62520       -2.26240
H        -11.88140       -0.50630       -4.24610
H        -12.25810        0.57870       -3.06790
H        -11.89820       -3.51470       -3.73700
H        -14.51270       -7.09160       -1.30810
H        -13.09770       -8.61080       -0.59340
H        -11.90850      -10.73570       -0.87660
H        -10.48680       -9.89960       -1.54370
H        -13.16090       -9.82320       -2.72120
H        -11.88870      -10.70900       -3.26110
H        -10.31480       -8.45650        0.67340
H        -11.66270       -9.47520        1.23550
H        -11.76190       -6.56570        0.97750
H        -11.63150       -7.41090        2.38130
H         -9.36160       -4.18070       -3.68220
H         -7.15810       -5.20330       -3.29320
H         -8.95170       -8.41580       -1.08600
H         -5.30030       -6.53000       -3.38070
H         -1.09930       -8.27610       -2.77400
H         -1.13010      -11.18440        0.77570
H         -4.05550      -12.19880        3.24170
H         -1.11670      -12.73980        2.51710
H         -3.85130      -13.02780        5.13090
H          0.15750      -15.95510        5.65220
H         -0.05750      -14.46560        3.70160
H         -5.18180      -13.28520        6.80960
H         -7.15830      -14.40140        7.85120
H         -6.10820      -15.74480        8.37030
H         -6.51520      -14.88680        5.60780
H         -7.08750      -16.25450        6.31090
H         -4.20170      -12.49260        8.97730
H         -5.06030      -13.80490        9.81940
H         -6.29150      -11.66240        8.26830
H         -6.40170      -11.92960        9.88480
H         -4.52910      -15.90560        9.99610
H         -0.17890      -17.33240        7.86440
H          0.40120      -20.03570       11.01800
H          1.20340      -20.73320        8.79420
H          0.15560      -19.52730        8.00870
H         -0.79600      -21.70750        9.70720
H         -0.88340      -21.64140        8.06910
H          1.41420      -17.64280        9.40040
H          2.41090      -18.98270       10.01950
H          0.76630      -17.21740       11.66780
H          2.40380      -17.17790       11.53510
H         -4.84550      -17.21050       12.21410
H         -4.70990      -18.74830       14.12420
H         -0.98550      -20.33980       12.68290
H         -4.33490      -19.80900       16.00090
H         -4.62520      -22.67110       19.55230
H         -1.79210      -26.22050       18.90360
H         -0.07460      -27.77840       17.73430
H          1.45450      -26.36440       15.47350
H          3.63890      -27.35680       15.12810
H          1.84640      -31.73240       16.71430
H          0.49190      -29.69010       16.89860
H          7.23650      -29.18880       13.98440
H          4.86360      -27.41580       13.23440
H          5.39700      -28.85860       12.34130
H          6.97580      -26.45080       12.81810
H          6.43230      -27.04180       11.38750
H          7.72520      -27.21810       15.04680
H          6.81340      -28.08550       16.30070
H          5.95350      -25.82740       14.70150
H          5.88490      -26.05760       16.32400
H          7.70090      -31.30220       14.25000
H          3.63050      -33.55020       16.22850
H          5.58310      -37.21860       16.03160
H          3.81040      -35.28190       17.57360
H          5.48670      -35.61690       18.06710
H          3.44430      -37.65310       17.62320
H          3.95940      -37.11120       19.09210
H          4.13080      -36.45340       14.08990
H          3.12450      -35.57510       15.26480
H          3.63710      -38.44830       15.24150
H          2.21720      -37.68150       14.94260
H          9.56550      -33.14380       13.89180
H         10.86830      -35.22930       13.68220
H          7.57570      -37.52940       15.20400
H          8.55060      -39.26870       14.06380
H         10.68300      -43.28090       13.48440
H         15.20980      -42.68130       13.77510
H         17.38560      -39.44780       14.42310
H         17.43490      -42.48530       13.94810
H         19.43820      -43.58370       13.89890
H         21.90230      -39.42210       15.10130
H         19.46990      -39.37380       14.78330
H         23.00140      -45.78400       13.97770
H         20.93790      -46.93510       14.76190
H         20.20100      -45.35180       15.11930
H         22.68740      -46.34590       16.28890
H         21.22990      -46.22890       17.03580
H         21.74750      -46.45160       12.18550
H         21.90050      -44.70830       11.87210
H         19.56640      -46.14830       12.83060
H         19.71960      -45.14070       11.54600
H         24.95660      -44.97560       14.44620
H         24.42220      -40.04110       15.38280
H         28.56520      -39.75210       15.75290
H         26.56460      -39.13980       14.10200
H         27.58820      -37.92950       14.90160
H         25.14730      -37.60840       14.95200
H         25.90600      -37.48390       16.39700
H         27.52460      -38.54920       17.69520
H         28.03480      -40.22900       17.98180
H         25.28340      -39.45040       17.39710
H         25.88950      -39.76870       18.89220
H         27.46800      -45.61100       14.75260
H         29.90480      -45.66560       15.19060
H         31.11280      -43.62120       15.83010
H         29.93390      -41.46690       16.04580
