138
365_261_01010101.out	Energy:   -8515.5612241
C         -1.05200      -21.40090       -5.72860
C         -0.14290      -20.70380       -5.00500
C         -0.43890      -19.31140       -4.92810
C         -1.59960      -18.99550       -5.61980
S         -2.30590      -20.39820       -6.34740
C         -2.22580      -17.73700       -5.78160
C         -1.83740      -16.49630       -5.28540
C         -0.67600      -16.13590       -4.46130
O         -0.48770      -14.98820       -4.11300
N          0.24480      -17.08570       -4.05250
C          0.47240      -18.44940       -4.17340
O          1.45950      -18.89920       -3.62750
C         -2.73040      -15.46880       -5.66220
C         -3.78590      -15.90510       -6.43310
S         -3.68290      -17.61970       -6.70510
C         -4.87060      -15.16460       -6.98500
C         -5.04890      -13.82530       -6.81610
C         -6.13040      -13.07630       -7.34990
C         -7.19690      -13.47640       -8.13080
C         -8.03590      -12.36260       -8.40980
C         -7.52240      -11.22750       -7.81250
C         -6.28490      -11.62850       -7.11460
S         -5.29030      -10.66440       -6.25820
C         -8.01070       -9.89640       -7.79890
C         -9.16000       -9.48750       -8.40790
C         -9.66090       -8.15760       -8.38170
C         -9.13480       -7.02600       -7.79050
C         -9.92470       -5.87170       -7.96720
C        -11.07750       -6.13100       -8.70950
S        -11.16380       -7.79490       -9.17860
C        -12.10800       -5.25390       -9.09160
C        -12.25710       -3.89210       -8.82520
C        -11.37450       -2.98920       -8.07680
O        -11.65260       -1.81640       -7.93280
N        -10.19060       -3.43720       -7.51050
C         -9.45980       -4.60880       -7.38160
O         -8.41670       -4.55000       -6.76340
C        -13.43980       -3.36630       -9.38410
C        -14.19220       -4.29760      -10.07220
S        -13.43010       -5.86070      -10.02870
C        -15.41690       -4.14720      -10.77550
C        -16.12720       -2.98780      -10.88640
C        -17.32740       -2.86660      -11.63100
C        -18.00600       -3.81790      -12.37200
C        -19.13970       -3.23020      -12.98820
C        -19.21620       -1.89030      -12.65180
C        -18.07610       -1.60220      -11.76130
S        -17.71700       -0.17550      -11.06120
C        -20.14950       -0.90680      -13.06690
C        -21.12450       -1.13520      -13.99300
C        -22.03960       -0.16620      -14.48410
C        -22.26410        1.13660      -14.08530
C        -23.23940        1.80540      -14.85330
C        -23.76130        0.99590      -15.86330
S        -23.05960       -0.58520      -15.82980
C        -24.68280        1.31370      -16.87610
C        -25.34770        2.51510      -17.12480
C        -25.32160        3.76500      -16.35570
O        -26.00160        4.71650      -16.68070
N        -24.52120        3.90770      -15.23190
C        -23.57370        3.19330      -14.51300
O        -23.03890        3.75790      -13.58090
C        -26.13540        2.45590      -18.29230
C        -26.08140        1.23650      -18.93920
S        -25.05870        0.12490      -18.07630
C        -26.65910        0.82570      -20.16980
C        -27.37040        1.63140      -21.01030
C        -27.82180        1.23600      -22.29410
C        -27.69350        0.02090      -22.94020
C        -28.19980        0.13020      -24.25950
C        -28.67080        1.41240      -24.48840
C        -28.47210        2.17160      -23.23860
S        -28.84920        3.72170      -22.90060
C        -29.17310        1.86680      -25.73510
C        -29.71780        3.08460      -26.01680
C        -30.10120        3.48040      -27.32510
C        -30.73170        4.65180      -27.69120
C        -30.94310        4.77720      -29.08020
C        -30.45000        3.67940      -29.78570
S        -29.75690        2.50050      -28.72300
C        -30.41340        3.45700      -31.17430
C        -30.89030        4.26140      -32.20970
C        -31.60050        5.54370      -32.14310
O        -31.98220        6.10310      -33.15130
N        -31.86100        6.16590      -30.93230
C        -31.61840        5.98000      -29.57930
O        -31.99720        6.84900      -28.82100
C        -30.62100        3.70980      -33.47900
C        -29.94660        2.50660      -33.43310
S        -29.64890        2.03010      -31.78770
C        -29.47520        1.68530      -34.49600
C        -29.61650        1.98650      -35.81600
C        -29.13030        1.22830      -36.91850
C        -29.29080        1.58620      -38.23760
C        -28.66460        0.62060      -39.09080
C        -28.09740       -0.36430      -38.32770
C        -28.36260       -0.04110      -36.91130
S        -27.87920       -0.95040      -35.64820
C        -27.35840       -1.53370      -38.72760
C        -27.07080       -1.87300      -39.98740
H         -1.05760      -22.45800       -5.93560
H          0.72570      -21.13040       -4.52370
H          0.97650      -16.65360       -3.49590
H         -2.57500      -14.44300       -5.35930
H         -5.58880      -15.73200       -7.56940
H         -4.33460      -13.25220       -6.22900
H         -7.38720      -14.47840       -8.48770
H         -8.93700      -12.42080       -9.00320
H         -7.40350       -9.18210       -7.24720
H         -9.76010      -10.21060       -8.95240
H         -8.20590       -7.00010       -7.23840
H         -9.71470       -2.67270       -7.04030
H        -13.70820       -2.32500       -9.27370
H        -15.79130       -5.04330      -11.26200
H        -15.77660       -2.08050      -10.40010
H        -17.72970       -4.85640      -12.48520
H        -19.82810       -3.77020      -13.62230
H        -20.02730        0.08140      -12.62960
H        -21.20400       -2.12190      -14.44040
H        -21.75540        1.62010      -13.26310
H        -24.62720        4.83990      -14.84220
H        -26.71210        3.30390      -18.63420
H        -26.45750       -0.19980      -20.46540
H        -27.57810        2.66250      -20.73310
H        -27.26590       -0.88160      -22.52780
H        -28.20640       -0.67540      -24.97990
H        -29.09220        1.14780      -26.54920
H        -29.86480        3.81570      -25.22760
H        -31.04310        5.41400      -26.99080
H        -32.34710        7.04470      -31.08520
H        -30.92160        4.20890      -34.38940
H        -28.95820        0.77620      -34.20580
H        -30.13940        2.90010      -36.09160
H        -29.80830        2.46540      -38.59360
H        -28.65610        0.68650      -40.16910
H        -27.02310       -2.16230      -37.90490
H        -27.38040       -1.27860      -40.83680
H        -26.50780       -2.76700      -40.21530
