114
365_41_01010101.out	Energy:   -6594.1271375
C        -12.30610      -10.70950       11.27080
C        -12.62920      -11.57870       10.28330
C        -13.18240      -10.93900        9.13520
C        -13.26040       -9.56490        9.30230
S        -12.65970       -9.07880       10.85040
C        -13.74840       -8.58340        8.40380
C        -14.26260       -8.74950        7.12420
C        -14.44910       -9.97500        6.33770
O        -14.91080       -9.93630        5.21580
N        -14.10970      -11.21920        6.84430
C        -13.57300      -11.77370        7.99700
O        -13.43850      -12.98040        8.02440
C        -14.64910       -7.51720        6.54210
C        -14.43780       -6.43270        7.35590
S        -13.74640       -6.92000        8.87310
C        -14.71160       -5.04320        7.11780
C        -15.24530       -4.55800        5.97910
C        -15.54020       -3.15890        5.71680
C        -15.51240       -2.16070        6.61960
N        -15.97800       -2.94720        4.39660
N        -15.89680       -1.73320        4.01480
C        -16.37510       -1.54320        2.74120
C        -16.85800       -2.46150        1.83970
C        -17.25570       -1.88010        0.61570
C        -17.06860       -0.49850        0.60620
S        -16.39800        0.06670        2.09590
C        -17.36250        0.42820       -0.42010
C        -17.89540        0.19590       -1.68420
C        -18.29820       -1.06370       -2.32130
O        -18.74110       -1.08080       -3.45160
N        -18.19200       -2.27550       -1.65960
C        -17.78660       -2.76620       -0.42810
O        -17.88360       -3.96150       -0.24520
C        -18.05370        1.39200       -2.42140
C        -17.65570        2.51840       -1.74260
S        -17.06470        2.11270       -0.16200
C        -17.69410        3.88760       -2.16720
C        -18.12870        4.29510       -3.37790
C        -18.18750        5.68930       -3.76850
C        -18.56250        6.09610       -4.99570
N        -17.74030        6.60330       -2.79700
N        -18.25620        7.76110       -2.92420
C        -17.74910        8.68260       -2.04090
C        -16.68380        8.58680       -1.17790
C        -16.44620        9.77970       -0.45860
C        -17.35640       10.78140       -0.79070
S        -18.48600       10.25150       -1.98570
C        -17.45290       12.09830       -0.28680
C        -16.63750       12.75220        0.63110
C        -15.45710       12.26020        1.35110
O        -14.83950       12.97860        2.10990
N        -15.00980       10.95640        1.20200
C        -15.33060        9.80760        0.49510
O        -14.64570        8.82420        0.68770
C        -17.06100       14.08210        0.86480
C        -18.17880       14.43840        0.14990
S        -18.72930       13.12390       -0.84030
C        -18.89960       15.67730        0.12950
C        -18.53710       16.80230        0.78000
C        -19.32390       18.01980        0.70940
C        -18.98450       19.16380        1.33190
N        -20.53410       17.88530        0.00860
N        -20.99870       18.98020       -0.44910
C        -22.21920       18.81160       -1.06090
C        -23.01510       17.69260       -1.11350
C        -24.21060       17.89450       -1.83700
C        -24.30760       19.19280       -2.33570
S        -22.93510       20.15030       -1.89980
C        -25.33300       19.76250       -3.12430
C        -26.50660       19.17870       -3.59180
C        -27.03220       17.82360       -3.38710
O        -28.09680       17.48520       -3.86200
N        -26.33720       16.88140       -2.64590
C        -25.13970       16.76440       -1.95950
O        -24.88680       15.68910       -1.45610
C        -27.27050       20.07520       -4.37440
C        -26.70090       21.31870       -4.50730
S        -25.19380       21.40440       -3.65070
C        -27.17850       22.46150       -5.22950
C        -28.29800       22.47550       -5.98340
C        -28.74470       23.64580       -6.70770
C        -29.78420       23.64870       -7.55690
N        -27.93210       24.80130       -6.55620
N        -28.55490       25.87700       -6.66250
H        -11.87570      -10.93540       12.23220
H        -12.49380      -12.65000       10.33070
H        -14.31380      -11.94570        6.16440
H        -15.07030       -7.46870        5.54790
H        -14.45940       -4.37170        7.93340
H        -15.47880       -5.22660        5.15600
H        -15.24380       -2.31890        7.65320
H        -15.78740       -1.15500        6.33540
H        -16.92530       -3.52150        2.03940
H        -18.52180       -3.03300       -2.25070
H        -18.45810        1.38910       -3.42370
H        -17.34970        4.62850       -1.45160
H        -18.47490        3.57770       -4.11510
H        -18.85060        5.39450       -5.76450
H        -18.56250        7.14430       -5.25760
H        -16.08020        7.69780       -1.06300
H        -14.19970       10.79190        1.79260
H        -16.53920       14.73140        1.55360
H        -19.80890       15.68770       -0.46500
H        -17.62780       16.84200        1.37110
H        -18.08220       19.24640        1.91930
H        -19.62130       20.03510        1.27740
H        -22.75930       16.75140       -0.64810
H        -26.84960       16.00480       -2.61680
H        -28.21280       19.78070       -4.81430
H        -26.57430       23.36170       -5.16380
H        -28.91840       21.58930       -6.07490
H        -30.37180       22.76210       -7.74510
H        -30.05030       24.54350       -8.10120
H        -27.86620       26.64740       -6.58690
