162
365_1067_01010101.out	Energy:   -7689.6090505
C        -23.20620        4.80010        6.67260
C        -22.95690        5.49610        7.80760
C        -22.10420        4.79970        8.71440
C        -21.72790        3.56160        8.21530
S        -22.41790        3.27000        6.65530
C        -20.89370        2.57990        8.80340
C        -20.23870        2.61000       10.02880
C        -20.22530        3.65270       11.06140
O        -19.59060        3.51160       12.08770
N        -20.93280        4.83350       10.90820
C        -21.76020        5.44950        9.97980
O        -22.18790        6.55130       10.26090
C        -19.48700        1.43290       10.25990
C        -19.56210        0.51840        9.23710
S        -20.57930        1.10540        7.95610
C        -18.93440       -0.76300        9.11190
C        -18.09420       -1.29310       10.03160
C        -17.43590       -2.56250        9.90690
C        -17.57120       -3.50200        8.82940
C        -16.74230       -4.58990        9.07590
C        -16.49300       -5.76310        8.32960
C        -15.57280       -6.65520        8.83110
C        -15.07250       -7.89530        8.32130
C        -14.11820       -8.38280        9.20450
C        -14.00620       -7.46240       10.29930
C        -14.88350       -6.40640       10.08440
C        -15.14390       -5.24060       10.83850
C        -16.06080       -4.34690       10.33460
C        -16.52470       -3.08350       10.81920
C        -13.33480       -9.57520        9.05170
C        -12.33780      -10.04160        9.86960
C        -11.72280      -11.22870        9.40050
C        -12.27900      -11.66580        8.20350
S        -13.55060      -10.61420        7.67570
C        -11.92450      -12.77970        7.41190
C        -10.89620      -13.69780        7.60310
C         -9.92990      -13.80930        8.69970
O         -9.08550      -14.68310        8.70870
N         -9.94900      -12.93320        9.77370
C        -10.63580      -11.80530       10.19610
O        -10.29490      -11.30850       11.25130
C        -10.82440      -14.64190        6.55170
C        -11.77860      -14.46350        5.57940
S        -12.79980      -13.10800        5.95480
C        -11.98830      -15.20900        4.37380
C        -11.09860      -16.10300        3.88270
C        -11.25750      -16.84360        2.66330
C        -10.25560      -17.58750        2.04950
C        -10.77710      -18.15210        0.84390
C        -10.18980      -18.92210       -0.13350
C        -10.99320      -19.31620       -1.22550
C        -10.70110      -20.06460       -2.35950
C        -11.89080      -20.19100       -3.14780
C        -12.91690      -19.51300       -2.50170
C        -12.39340      -18.94060       -1.29810
C        -12.97590      -18.15640       -0.32780
C        -12.16630      -17.74100        0.75260
C        -12.44080      -16.94140        1.85700
C        -11.96870      -20.90760       -4.39000
C        -13.08490      -21.27090       -5.09810
C        -12.79670      -21.99100       -6.28470
C        -11.42960      -22.15630       -6.47500
S        -10.52010      -21.44030       -5.18720
C        -10.74570      -22.78410       -7.53860
C        -11.26330      -23.47260       -8.63120
C        -12.65950      -23.72620       -8.99790
O        -12.94440      -24.38300       -9.97970
N        -13.70920      -23.21390       -8.24990
C        -13.91620      -22.45070       -7.11040
O        -15.06630      -22.19330       -6.81410
C        -10.24400      -23.96850       -9.47900
C         -8.97350      -23.65790       -9.05740
S         -9.01650      -22.74650       -7.57780
C         -7.71120      -23.95910       -9.66210
C         -7.54280      -24.78520      -10.72130
C         -6.27320      -25.06000      -11.33580
C         -6.06110      -26.08550      -12.31460
C         -4.72120      -26.08090      -12.69100
C         -3.99660      -26.88890      -13.59330
C         -2.65470      -26.62180      -13.75510
C         -1.64990      -27.24100      -14.56340
C         -0.44860      -26.57010      -14.36670
C         -0.67250      -25.51390      -13.42590
C         -2.00870      -25.53850      -13.03790
C         -2.72910      -24.73870      -12.12610
C         -4.06660      -25.01770      -11.95190
C         -5.05890      -24.41490      -11.11870
C          0.81840      -26.86950      -14.97210
C          1.96920      -26.12660      -14.92570
C          3.05590      -26.71230      -15.62220
C          2.71040      -27.93070      -16.19640
S          1.05260      -28.32840      -15.88660
C          3.51930      -28.83210      -16.92170
C          4.85780      -28.71130      -17.28450
C          5.79790      -27.61190      -17.04860
O          6.93620      -27.65390      -17.47220
N          5.42950      -26.48480      -16.33050
C          4.32990      -25.99020      -15.64650
O          4.46140      -24.92380      -15.07790
C          5.32490      -29.84980      -17.98200
C          4.37330      -30.82760      -18.15010
S          2.85790      -30.34170      -17.45080
C          4.49370      -32.11410      -18.76630
C          5.64210      -32.59450      -19.30010
C          5.79870      -33.89580      -19.88390
C          4.80380      -34.91070      -20.01190
C          5.38120      -36.03260      -20.61290
C          4.84420      -37.28940      -20.95080
C          5.69010      -38.20910      -21.53430
C          5.47460      -39.55270      -21.98770
C          6.66440      -40.03620      -22.49550
C          7.65480      -39.03710      -22.38430
C          7.07910      -37.89940      -21.79450
C          7.61670      -36.64700      -21.46150
C          6.77110      -35.72200      -20.87390
C          6.99340      -34.39400      -20.41260
H        -23.81420        5.10120        5.83590
H        -23.34810        6.47840        8.03160
H        -20.80560        5.43090       11.71970
H        -18.91660        1.29570       11.16750
H        -19.16050       -1.31200        8.20290
H        -17.86690       -0.73550       10.93600
H        -18.21190       -3.37930        7.96820
H        -17.00690       -5.93870        7.39030
H        -15.38110       -8.36230        7.39810
H        -13.34220       -7.57840       11.14300
H        -14.62570       -5.06280       11.77470
H        -16.20730       -2.61490       11.73870
H        -12.02240       -9.56320       10.78590
H         -9.22190      -13.17460       10.44050
H        -10.08320      -15.42850        6.54770
H        -12.90330      -14.99380        3.83070
H        -10.16350      -16.26990        4.41030
H         -9.24560      -17.71280        2.41010
H         -9.14770      -19.21870       -0.07970
H         -9.74470      -20.49590       -2.61740
H        -13.93600      -19.41620       -2.84390
H        -14.01800      -17.85950       -0.38210
H        -13.39040      -16.47770        2.08200
H        -14.09910      -21.05430       -4.79410
H        -14.59830      -23.46500       -8.67200
H        -10.47430      -24.52250      -10.37810
H         -6.84690      -23.48370       -9.20800
H         -8.39990      -25.29890      -11.14720
H         -6.82720      -26.75210      -12.68370
H         -4.48830      -27.69110      -14.13350
H         -1.80520      -28.08490      -15.21870
H          0.08110      -24.82580      -13.07230
H         -2.23680      -23.93760      -11.58510
H         -4.87930      -23.58670      -10.44960
H          2.06520      -25.17630      -14.42000
H          6.21230      -25.84240      -16.25370
H          6.34470      -29.91800      -18.33320
H          3.59460      -32.72250      -18.77350
H          6.53650      -31.97760      -19.28890
H          3.77460      -34.82740      -19.69430
H          3.80200      -37.51780      -20.75270
H          4.53560      -40.08330      -21.93390
H          6.82260      -41.01960      -22.91270
H          8.68320      -39.13520      -22.70060
H          8.65910      -36.41840      -21.65750
H          7.93260      -33.86300      -20.46110
