118
470_642_01010101.out	Energy:   -3365.0802973
C          5.67470       -4.96860       -2.86960
O          4.45860       -5.48350       -2.61410
C          3.51460       -4.55160       -2.90980
C          4.15900       -3.40000       -3.37210
C          5.53510       -3.67890       -3.34160
O          6.49100       -2.80070       -3.71820
C          7.84220       -3.21850       -3.64870
C          2.16050       -4.88320       -2.71440
C          1.00090       -4.07640       -2.94030
C          0.85630       -2.76300       -3.40150
C         -0.41260       -2.22050       -3.52200
C         -1.54830       -2.96050       -3.19200
C         -1.43120       -4.26570       -2.73190
C         -0.16710       -4.82610       -2.60440
C          0.22100       -6.14250       -2.14900
C          1.71230       -6.19970       -2.21250
O          2.40730       -7.14820       -1.91020
C         -0.62220       -7.13320       -1.73530
C         -0.20870       -8.40840       -1.27750
C         -1.06140       -9.38420       -0.84860
O         -0.55980      -10.57650       -0.40570
C         -1.58590      -11.38310       -0.01080
C         -2.81750      -10.69310       -0.21660
C         -2.50160       -9.46750       -0.72750
O         -3.29550       -8.44830       -1.08450
C         -4.69720       -8.61150       -0.91790
C         -1.35820      -12.63090        0.50980
C         -0.09270      -13.29780        0.73690
C          1.20690      -12.89720        0.44930
C          2.25500      -13.74740        0.78000
C          2.01730      -14.97700        1.38880
C          0.72260      -15.38800        1.68220
C         -0.33640      -14.54950        1.35630
C         -1.76530      -14.72840        1.54360
C         -2.43160      -13.51940        0.98730
O         -3.62870      -13.29530        0.94530
C         -2.37500      -15.78280        2.15660
C         -3.77470      -15.93540        2.32990
C         -4.31230      -16.96300        3.04570
O         -3.54950      -17.90920        3.67180
C         -4.36950      -18.76340        4.35360
C         -5.72560      -18.37290        4.14100
C         -5.69410      -17.26830        3.33960
O         -6.67480      -16.50690        2.84590
C         -8.01340      -16.84440        3.17930
C         -3.86270      -19.78280        5.11790
C         -2.47780      -20.14530        5.34110
C         -1.30540      -19.61530        4.81510
C         -0.09000      -20.16220        5.20830
C         -0.03790      -21.22070        6.11150
C         -1.20290      -21.75860        6.64510
C         -2.42620      -21.22250        6.26150
C         -3.77450      -21.58250        6.66330
C         -4.70290      -20.68650        5.92050
O         -5.92060      -20.68700        5.97230
C         -4.12150      -22.52760        7.58310
C         -5.44880      -22.83680        7.97740
C         -5.73180      -23.74110        8.95650
O         -4.76740      -24.42550        9.64210
C         -5.36730      -25.22460       10.57540
C         -6.78240      -25.06010       10.48690
C         -7.00960      -24.15230        9.49350
O         -8.14240      -23.64170        9.00310
C         -9.37080      -24.06990        9.57260
C         -4.63080      -26.01460       11.41830
C         -3.20010      -26.16790       11.49440
C         -2.17830      -25.58890       10.75180
C         -0.86340      -25.92510       11.04580
C         -0.56050      -26.82910       12.06920
C         -1.56230      -27.41630       12.81980
C         -2.89790      -27.09400       12.54270
C         -4.10390      -27.54430       13.14880
C         -5.22820      -26.88370       12.46060
O         -6.42110      -27.01100       12.68940
C         -4.20810      -28.46250       14.22600
C         -5.36340      -28.87470       14.78860
H          6.52380       -5.60270       -2.67880
H          3.71460       -2.47580       -3.69360
H          8.44500       -2.37790       -3.99520
H          8.02200       -4.08670       -4.29480
H          8.12670       -3.47110       -2.61980
H          1.71800       -2.16300       -3.66450
H         -0.52570       -1.20260       -3.87850
H         -2.52950       -2.51110       -3.29530
H         -2.31790       -4.83500       -2.47620
H         -1.68980       -6.93150       -1.74950
H          0.85040       -8.63850       -1.25010
H         -3.78470      -11.10670        0.01010
H         -5.15950       -7.68240       -1.25300
H         -4.94530       -8.78860        0.13420
H         -5.06620       -9.44650       -1.52330
H          1.40310      -11.94310       -0.02360
H          3.27420      -13.44920        0.56060
H          2.85300      -15.62220        1.63650
H          0.54820      -16.34770        2.15600
H         -1.75190      -16.57660        2.56350
H         -4.45900      -15.21600        1.89770
H         -6.57300      -18.88510        4.56230
H         -8.64950      -16.10350        2.69410
H         -8.16510      -16.80830        4.26360
H         -8.26530      -17.84510        2.81140
H         -1.33290      -18.79190        4.11210
H          0.83270      -19.75840        4.80600
H          0.92340      -21.62980        6.40210
H         -1.15170      -22.58300        7.34780
H         -3.33010      -23.08820        8.07650
H         -6.28610      -22.33770        7.50610
H         -7.48820      -25.57850       11.11230
H        -10.16040      -23.53960        9.03930
H         -9.41300      -23.82050       10.63850
H         -9.50190      -25.15020        9.44770
H         -2.39900      -24.88720        9.95670
H         -0.05630      -25.48080       10.47390
H          0.47680      -27.07070       12.27370
H         -1.31640      -28.11610       13.61060
H         -3.26980      -28.85300       14.61600
H         -6.32930      -28.52760       14.45260
H         -5.36230      -29.57790       15.60960
