142
546_642_01010101.out	Energy:   -3599.0361330
C        -11.14520      -13.73910      -31.87330
C        -11.64770      -14.36040      -30.73420
N        -11.25430      -14.05280      -29.51060
C        -10.32290      -13.09390      -29.34470
C         -9.76770      -12.42040      -30.44470
C        -10.18400      -12.74740      -31.72120
C         -9.91890      -12.78520      -28.00060
C        -10.44580      -13.42650      -26.90980
C        -10.12190      -13.19650      -25.56020
C         -9.19940      -12.26110      -25.10440
C         -8.88960      -12.03630      -23.77070
C         -7.94460      -11.07570      -23.26640
C         -7.14110      -10.17450      -23.96420
C         -6.29860       -9.33240      -23.25610
C         -6.25230       -9.38190      -21.86320
C         -7.04480      -10.27280      -21.15160
C         -7.89930      -11.13050      -21.84000
C         -8.82530      -12.14140      -21.38550
C         -9.46420      -12.72770      -22.59920
O        -10.30090      -13.61030      -22.58600
C         -9.19700      -12.61670      -20.15180
C         -8.73450      -12.22080      -18.88840
C         -9.17450      -12.73390      -17.66900
C        -10.17410      -13.75540      -17.53950
N        -10.60340      -14.21720      -16.40840
C        -10.09830      -13.72860      -15.23000
C         -9.08390      -12.72740      -15.25690
C         -8.63330      -12.24090      -16.44230
C        -10.61990      -14.23300      -14.04120
C        -11.63460      -15.19940      -14.01020
C        -12.20420      -15.67250      -12.85150
C        -13.25190      -16.61890      -12.87340
C        -13.92320      -17.08870      -11.77660
C        -15.02420      -18.03050      -11.78040
C        -15.57730      -18.73560      -12.84330
C        -16.62520      -19.61250      -12.59840
C        -17.10920      -19.79380      -11.30540
C        -16.56680      -19.09660      -10.23380
C        -15.52840      -18.19600      -10.46000
C        -14.76680      -17.35860       -9.55920
C        -13.70460      -16.69600      -10.36360
O        -12.84860      -15.95720       -9.92020
C        -14.88000      -17.06240       -8.22290
C        -15.91590      -17.42900       -7.35110
C        -15.97420      -17.13730       -5.99000
C        -17.16360      -17.46260       -5.25540
N        -17.33780      -17.23110       -3.99380
C        -16.32580      -16.65890       -3.26350
C        -15.09990      -16.31210       -3.90460
C        -14.92550      -16.53230       -5.23390
C        -16.54760      -16.43750       -1.90660
C        -17.78220      -16.71330       -1.29900
C        -18.11120      -16.53310        0.02490
C        -17.21610      -16.16130        1.05270
C        -17.51150      -15.90270        2.36300
C        -18.75470      -15.79150        3.09950
C        -20.08260      -15.79740        2.68220
C        -21.09360      -15.64950        3.62360
C        -20.79780      -15.48640        4.97440
C        -19.48030      -15.45680        5.40940
C        -18.45710      -15.60410        4.47810
C        -17.02420      -15.58520        4.67920
C        -16.40320      -15.71910        3.34220
O        -15.22010      -15.70820        3.06560
C        -16.37910      -15.49550        5.88990
C        -14.98730      -15.52160        6.06840
C        -14.33660      -15.47740        7.30020
C        -12.90490      -15.57360        7.34640
N        -12.20000      -15.58450        8.43370
C        -12.83040      -15.48870        9.64850
C        -14.24890      -15.35760        9.70320
C        -14.98860      -15.35480        8.56410
C        -12.05210      -15.53310       10.80220
C        -10.65970      -15.69050       10.79120
C         -9.91090      -15.76100       11.94290
C         -8.51090      -15.94140       11.92990
C         -7.71540      -16.03980       13.04020
C         -6.28590      -16.23560       13.05720
C         -5.37730      -16.36420       12.01270
C         -4.03380      -16.55020       12.30820
C         -3.59030      -16.60900       13.63350
C         -4.47610      -16.48340       14.68780
C         -5.83750      -16.29480       14.41350
C         -6.94550      -16.14000       15.29250
C         -8.15540      -15.97420       14.46850
O         -9.29630      -15.81460       14.86520
C         -6.89410      -16.14590       16.71090
C         -7.95600      -15.99970       17.53080
H        -11.49910      -14.02590      -32.85590
H        -12.40090      -15.13900      -30.81750
H         -9.01990      -11.65240      -30.28300
H         -9.76880      -12.24050      -32.58550
H         -9.16770      -12.01020      -27.88520
H        -11.19300      -14.19220      -27.10560
H        -10.64230      -13.80300      -24.82750
H         -8.67530      -11.65250      -25.83890
H         -7.17270      -10.13000      -25.04720
H         -5.66940       -8.62730      -23.78770
H         -5.58720       -8.71400      -21.32720
H         -6.98480      -10.28450      -20.07060
H         -9.95170      -13.40070      -20.19140
H         -7.97450      -11.44760      -18.83520
H        -10.61770      -14.18650      -18.43270
H         -8.68840      -12.36230      -14.31540
H         -7.86550      -11.47440      -16.47580
H        -10.23450      -13.84770      -13.10210
H        -11.99090      -15.57240      -14.96800
H        -11.85770      -15.29680      -11.89480
H        -13.55950      -16.98040      -13.85380
H        -15.19510      -18.61080      -13.85030
H        -17.06490      -20.16870      -13.41870
H        -17.91880      -20.49370      -11.13090
H        -16.95230      -19.27470       -9.23770
H        -14.08680      -16.42770       -7.83110
H        -16.77440      -17.94770       -7.76630
H        -17.99110      -17.92590       -5.78940
H        -14.31320      -15.86370       -3.30780
H        -13.99300      -16.26370       -5.71720
H        -15.73750      -16.01620       -1.32070
H        -18.56230      -17.08240       -1.96100
H        -19.14100      -16.73560        0.29920
H        -16.15670      -16.11430        0.80470
H        -20.34590      -15.90330        1.63740
H        -22.12840      -15.65620        3.29980
H        -21.60400      -15.37230        5.69040
H        -19.25710      -15.31450        6.46100
H        -17.00460      -15.42210        6.77720
H        -14.36510      -15.60510        5.18310
H        -12.36180      -15.65230        6.40720
H        -14.72310      -15.26710       10.67450
H        -16.06760      -15.25970        8.61500
H        -12.55530      -15.45480       11.76150
H        -10.17110      -15.76780        9.82260
H        -10.41520      -15.68330       12.90000
H         -8.03570      -16.01280       10.95220
H         -5.70720      -16.32090       10.98060
H         -3.31550      -16.65210       11.50230
H         -2.53440      -16.75560       13.83260
H         -4.12070      -16.53080       15.71090
H         -5.90890      -16.28080       17.15400
H         -8.96140      -15.86190       17.16170
H         -7.83460      -16.01550       18.60490
