130
630_515_01010101.out	Energy:   -5979.1592945
C         -4.71250        4.60300       13.02810
C         -5.89870        4.50710       12.38480
C         -6.04800        5.65520       11.50590
C         -4.81950        6.45590       11.68710
C         -4.03580        5.81280       12.59790
C         -4.51190        7.66400       11.03280
N         -4.24520        8.65460       10.50590
C         -7.10000        5.94430       10.68110
C         -7.24400        7.08230        9.81440
C         -8.44120        6.99410        9.14230
C         -9.11140        5.76770        9.57700
C         -8.32840        5.13870       10.49040
C         -8.63690        3.92610       11.14170
N         -8.91310        2.93480       11.66070
C         -8.92550        7.92890        8.18240
C        -10.08960        7.78940        7.49190
C        -10.53740        8.71460        6.50930
S         -9.68310       10.19540        6.22830
C        -10.76440       10.67830        4.96410
C        -11.77480        9.74000        4.78060
C        -11.64090        8.63230        5.66060
N        -12.58880        7.54660        5.63150
O        -12.30470        6.52320        6.20530
O        -13.61440        7.73090        5.03250
C        -12.82170        9.90800        3.83850
N        -13.64310       10.12470        3.06170
C        -10.53530       11.89380        4.25290
C        -11.01700       12.26420        3.01760
C        -10.47810       13.54580        2.67140
C         -9.65730       13.97050        3.82640
C         -9.67520       12.96710        4.74340
C         -8.96230       15.19060        3.94950
N         -8.39590       16.18750        4.07090
C        -10.60190       14.20670        1.47090
C        -10.02940       15.46800        1.10630
C        -10.27640       15.70620       -0.22780
C        -11.05070       14.58080       -0.75040
C        -11.27000       13.69260        0.25260
C        -11.97010       12.47390        0.13470
N        -12.53990       11.48070        0.00440
C         -9.82500       16.78670       -1.04330
C         -9.30010       17.94350       -0.56340
C         -8.78640       19.01280       -1.36440
S         -8.88380       20.62640       -0.74660
C         -8.16520       21.31110       -2.16660
C         -7.85620       20.31960       -3.09290
C         -8.21470       19.02370       -2.63090
N         -7.87400       17.85680       -3.41560
O         -7.67340       16.82280       -2.83010
O         -7.79150       18.00270       -4.60440
C         -7.25550       20.57020       -4.35280
N         -6.76280       20.83500       -5.35900
C         -7.98920       22.72310       -2.27390
C         -8.60510       23.68130       -1.49920
C         -8.19150       24.97960       -1.93980
C         -7.22450       24.74620       -3.03450
C         -7.12890       23.40600       -3.23760
C         -6.53980       25.73700       -3.76830
N         -5.97490       26.53160       -4.38280
C         -8.64370       26.20420       -1.50410
C         -8.22640       27.49580       -1.95500
C         -8.99920       28.46250       -1.34880
C         -9.94280       27.78870       -0.45770
C         -9.72650       26.44850       -0.52360
C        -10.42820       25.45820        0.19320
N        -11.01240       24.65620        0.78040
C         -8.88690       29.86390       -1.58160
C         -9.79840       30.78950       -1.18400
C         -9.73550       32.18750       -1.48080
S        -11.22820       33.05130       -1.62880
C        -10.43910       34.51620       -2.11380
C         -9.05660       34.34800       -2.14000
C         -8.67040       33.02990       -1.77730
N         -7.27020       32.69220       -1.63640
O         -6.98120       31.82710       -0.84830
O         -6.48600       33.31420       -2.29770
C         -8.13990       35.38080       -2.46150
N         -7.43600       36.25410       -2.71950
C        -11.21480       35.66110       -2.45860
C        -10.79170       36.90080       -2.88840
C        -11.93650       37.70700       -3.18990
C        -13.11800       36.87020       -2.89120
C        -12.67510       35.66250       -2.45180
C        -14.46800       37.25550       -3.01870
N        -15.57860       37.55000       -3.11310
C        -11.95190       38.98770       -3.69390
C        -13.09490       39.74460       -4.10600
C        -12.67780       40.95890       -4.60460
C        -11.21890       41.01210       -4.49400
C        -10.77410       39.84780       -3.95700
C         -9.43070       39.53080       -3.66800
N         -8.32550       39.30780       -3.43030
C        -13.45120       42.01830       -5.16900
C        -14.80410       41.98820       -5.27590
C        -15.65410       43.01090       -5.80940
S        -17.32080       42.94810       -5.33700
C        -17.69290       44.38700       -6.17880
C        -16.60130       44.92120       -6.80990
C        -15.43040       44.12570       -6.60510
N        -14.20630       44.47040       -7.28740
O        -13.44490       43.57830       -7.56890
O        -14.03950       45.62840       -7.55940
C        -16.66700       46.10430       -7.59590
N        -16.80270       47.05910       -8.22180
H         -4.30660        3.90970       13.74900
H         -6.63000        3.72280       12.48840
H         -3.06850        6.13460       12.95240
H         -6.51850        7.87270        9.71130
H        -10.07280        5.42940        9.22250
H         -8.29210        8.79160        7.99070
H        -10.71630        6.92300        7.66310
H        -11.66690       11.68240        2.38600
H         -9.16650       12.94930        5.69520
H         -9.46440       16.09860        1.77280
H        -11.38490       14.49690       -1.77310
H         -9.92540       16.64510       -2.11390
H         -9.31420       18.13540        0.50550
H         -9.30610       23.49080       -0.70300
H         -6.50850       22.91440       -3.96880
H         -7.43840       27.67770       -2.66720
H        -10.67280       28.28710        0.16160
H         -8.02380       30.17290       -2.16120
H        -10.71010       30.46740       -0.68950
H         -9.77110       37.22240       -3.00970
H        -13.28160       34.82350       -2.14650
H        -14.11070       39.38950       -4.05270
H        -10.61820       41.85500       -4.79980
H        -12.89170       42.87790       -5.51800
H        -15.34310       41.13570       -4.87140
H        -18.69520       44.78160       -6.17950
