170
630_981_01010101.out	Energy:   -4399.6376355
C        -23.24820       -0.09920        2.90880
C        -22.04740       -0.61030        2.58380
C        -21.40220        0.30660        1.63330
C        -22.36160        1.41000        1.44820
C        -23.43800        1.15110        2.21150
C        -22.23430        2.57100        0.65220
N        -22.14140        3.52660       -0.00030
C        -20.19130        0.12470        1.06110
C        -19.56990        0.99230        0.05480
C        -18.38640        0.45780       -0.31580
C        -18.18770       -0.75770        0.46190
C        -19.23350       -0.96630        1.27610
C        -19.30100       -2.05000        2.17780
N        -19.34100       -2.94850        2.91490
C        -17.52690        1.03370       -1.32420
C        -16.32330        0.54820       -1.66130
N        -15.43650        1.02810       -2.59780
C        -15.75140        1.89020       -3.72270
N        -14.59790        2.20580       -4.57470
C        -13.49510        1.56630       -3.87060
C        -14.06280        0.57730       -2.77930
N        -13.23900        0.85280       -1.61350
C        -12.61870        2.14980       -1.84070
N        -12.80150        2.67160       -3.19870
C        -12.73280       -0.03940       -0.69350
C        -12.78780       -1.37480       -0.65750
C        -12.15500       -2.18130        0.36000
C        -11.01280       -1.88730        1.03070
C        -10.73270       -2.97120        1.98220
C        -11.75890       -3.98790        1.71850
C        -12.57830       -3.51320        0.76860
C        -11.87780       -5.28570        2.25650
N        -11.98680       -6.35360        2.68470
C         -9.77310       -2.97620        2.93040
C         -9.65030       -3.98260        3.98780
C         -8.69860       -3.58970        4.85470
C         -8.10830       -2.36020        4.35410
C         -8.71160       -1.99600        3.20830
C         -8.26220       -0.92270        2.40350
N         -7.86580       -0.04850        1.75160
C         -8.36470       -4.34710        6.02990
C         -8.43080       -3.85900        7.27540
N         -8.17540       -4.51900        8.45750
C         -7.74530       -5.89820        8.60290
N         -7.65890       -6.35650        9.99360
C         -7.90510       -5.13800       10.75100
C         -8.50120       -4.03780        9.79210
N         -7.74870       -2.85160       10.14240
C         -6.51280       -3.31450       10.74580
N         -6.58450       -4.70080       11.23290
C         -8.20290       -1.55440       10.18240
C         -9.42280       -1.08090        9.89390
C         -9.79780        0.30900        9.97160
C         -9.25470        1.22010       10.80830
C         -9.90370        2.51430       10.58910
C        -10.94700        2.25800        9.58500
C        -10.87820        0.96020        9.24640
C        -11.90290        3.15020        9.05050
N        -12.69120        3.87850        8.60730
C         -9.55070        3.67440       11.18370
C        -10.13080        4.98650       10.90080
C         -9.45530        5.92160       11.59940
C         -8.46880        5.24040       12.42350
C         -8.50790        3.91850       12.19030
C         -7.69080        2.98780       12.87220
N         -7.01500        2.22920       13.43380
C         -9.77540        7.32460       11.53630
C         -8.92190        8.31640       11.82580
N         -9.15340        9.67350       11.74870
C        -10.19100       10.30590       10.95360
N        -10.19190       11.76690       11.03310
C         -8.93810       12.05760       11.71890
C         -8.18360       10.71170       12.06120
N         -7.94040       10.80130       13.49230
C         -8.87620       11.78730       13.99760
N         -9.34030       12.72480       12.96550
C         -6.78390       10.39100       14.11910
C         -6.46780       10.48140       15.41780
C         -5.20110       10.08600       15.98280
C         -4.93170       10.14290       17.30600
C         -3.56250        9.66690       17.52980
C         -3.02890        9.36890       16.19310
C         -4.00100        9.62010       15.30240
C         -1.72780        8.96300       15.81810
N         -0.66260        8.63370       15.49490
C         -2.96540        9.51700       18.73090
C         -1.65020        8.91800       18.94580
C         -1.39210        8.87800       20.26830
C         -2.53300        9.46800       20.95730
C         -3.46410        9.85370       20.06860
C         -4.65770       10.51730       20.43070
N         -5.63230       11.06870       20.73660
C         -0.21510        8.31860       20.88890
C          0.86960        7.86200       20.24680
N          2.01060        7.31030       20.78260
C          2.31010        7.16910       22.19310
N          3.52270        6.37230       22.41440
C          4.28820        6.73690       21.21080
C          3.24890        7.04570       20.05260
N          3.20040        5.80570       19.28190
C          4.21500        4.92180       19.83440
N          5.06830        5.57280       20.83070
C          2.57930        5.65250       18.06330
C          2.56820        4.58590       17.26000
H        -23.92690       -0.53220        3.55450
H        -21.64830       -1.49290        2.93990
H        -24.27230        1.75380        2.28750
H        -19.97220        1.86950       -0.31100
H        -17.36040       -1.37110        0.39590
H        -17.86180        1.87560       -1.81830
H        -16.02230       -0.29690       -1.15110
H        -16.14960        2.80760       -3.34230
H        -16.45110        1.35890       -4.33340
H        -14.45580        3.21350       -4.64280
H        -12.85990        1.00870       -4.52680
H        -14.04740       -0.47000       -2.99800
H        -11.56900        2.05740       -1.65490
H        -13.09670        2.84060       -1.17800
H        -11.90430        2.86820       -3.64230
H        -12.22930        0.39370        0.09640
H        -13.31410       -1.85860       -1.40180
H        -10.43630       -1.04220        0.89490
H        -13.39120       -4.01890        0.38310
H        -10.20340       -4.85110        4.05670
H         -7.34030       -1.84300        4.80980
H         -8.05600       -5.32410        5.90670
H         -8.70650       -2.86810        7.35990
H         -6.77810       -5.99720        8.15610
H         -8.48630       -6.50400        8.12450
H         -6.73460       -6.73600       10.19860
H         -8.59450       -5.29600       11.55390
H         -9.55130       -3.84210        9.85450
H         -6.27880       -2.67620       11.57210
H         -5.75960       -3.28470        9.98630
H         -6.53260       -4.73730       12.25090
H         -7.50910       -0.84860       10.47460
H        -10.14300       -1.75720        9.59580
H         -8.50390        1.03410       11.49140
H        -11.50150        0.49250        8.56980
H        -10.92700        5.16730       10.26970
H         -7.83220        5.70490       13.08980
H        -10.73130        7.58480       11.24710
H         -7.98230        8.03140       12.14340
H        -11.14060        9.94950       11.29430
H         -9.99830       10.05080        9.93250
H        -10.99060       12.10450       11.57020
H         -8.28080       12.65590       11.12320
H         -7.26660       10.52440       11.54260
H         -8.39620       12.34580       14.77380
H         -9.73410       11.25790       14.35630
H         -8.88420       13.63210       13.06090
H         -6.07060        9.95940       13.51080
H         -7.18130       10.86080       16.05960
H         -5.58220       10.46780       18.03830
H         -3.91080        9.50030       14.28140
H         -1.01900        8.57920       18.20300
H         -2.61410        9.57420       21.98060
H         -0.20800        8.26520       21.91950
H          0.84570        7.93360       19.21760
H          1.48580        6.68710       22.67590
H          2.47460        8.14570       22.59820
H          3.31920        5.37330       22.44580
H          4.91980        7.58320       21.38340
H          3.46150        7.85900       19.39060
H          4.83310        4.57190       19.03410
H          3.70420        4.12160       20.32800
H          5.96330        5.84670       20.42530
H          2.05120        6.47200       17.72500
H          3.07480        3.72920       17.53270
H          2.05310        4.61830       16.36630
