206
630_471_01010101.out	Energy:   -6345.2084505
C        -12.51420       36.33290      -30.02700
C        -11.90360       35.20720      -30.43880
C        -11.32720       34.54470      -29.26100
C        -11.66530       35.41640      -28.12050
C        -12.36420       36.46140      -28.59660
C        -11.34310       35.25750      -26.75320
N        -11.08290       35.14000      -25.62820
C        -10.65090       33.37440      -29.26460
C        -10.11100       32.69470      -28.08610
C         -9.54890       31.53340      -28.47760
C         -9.67580       31.42660      -29.91890
C        -10.31880       32.51050      -30.40020
C        -10.55920       32.71290      -31.77580
N        -10.74480       32.86720      -32.91660
C         -8.93990       30.58360      -27.58590
C         -7.88520       30.88600      -26.81530
C         -7.33430       29.91770      -25.93510
S         -7.90920       29.85170      -24.31380
C         -6.84810       28.56130      -23.87010
C         -6.03970       28.22520      -24.93970
C         -6.34010       28.97970      -26.12320
C         -5.68310       28.78730      -27.34660
C         -4.67940       27.77460      -27.32960
C         -3.92450       27.42310      -28.63050
C         -3.78470       28.65100      -29.55790
C         -2.49050       26.89950      -28.38200
C         -4.72010       26.32660      -29.36270
C         -4.40220       27.03700      -26.12930
C         -5.04080       27.24530      -24.89410
C         -6.94370       28.05910      -22.54370
C         -6.66420       26.77760      -22.27150
C         -6.69350       26.22720      -20.96020
C         -7.80670       26.19880      -20.21020
C         -7.46870       25.58100      -18.94010
C         -6.04060       25.23600      -19.01650
C         -5.60380       25.61290      -20.22810
C         -5.20390       24.65420      -18.03750
N         -4.50360       24.18680      -17.23850
C         -8.34470       25.39330      -17.94060
C         -8.01930       24.76790      -16.67410
C         -9.14300       24.72810      -15.94390
C        -10.22770       25.33340      -16.68150
C         -9.77220       25.74020      -17.87460
C        -10.59100       26.38210      -18.82660
N        -11.28150       26.90550      -19.60160
C         -9.17000       24.17390      -14.63850
C         -9.96230       23.14740      -14.30620
C         -9.96800       22.59960      -12.99310
S         -8.93490       23.24500      -11.77200
C         -9.45320       22.15550      -10.56270
C        -10.42420       21.31530      -11.07310
C        -10.71420       21.56640      -12.46100
C        -11.67360       20.83550      -13.18430
C        -12.35390       19.83430      -12.42960
C        -13.47260       19.01160      -13.08470
C        -12.90890       18.24120      -14.29020
C        -14.11880       17.97590      -12.13300
C        -14.58010       19.97430      -13.54930
C        -12.03670       19.60530      -11.06570
C        -11.08050       20.31830      -10.34990
C         -8.81910       22.31460       -9.30540
C         -9.14160       21.55390       -8.26650
C         -8.58550       21.62860       -6.97950
C         -9.29020       21.23170       -5.90620
C         -8.41130       21.34040       -4.77010
C         -7.12470       21.82340       -5.28830
C         -7.24420       21.96670       -6.61280
C         -5.92600       22.12680       -4.61600
N         -4.94550       22.38270       -4.07460
C         -8.76320       21.01040       -3.52210
C         -7.84410       21.07460       -2.41740
C         -8.46540       20.60610       -1.32880
C         -9.82990       20.25750       -1.68010
C        -10.02470       20.49390       -2.98280
C        -11.24630       20.24390       -3.63790
N        -12.26140       20.01970       -4.16510
C         -7.83330       20.43450       -0.06680
C         -6.57010       20.77950        0.20990
C         -6.00580       20.53310        1.48060
S         -4.31730       20.19720        1.52390
C         -4.29860       20.02490        3.22700
C         -5.56150       20.18880        3.75180
C         -6.54050       20.50120        2.75270
C         -7.88670       20.76730        3.05080
C         -8.22270       20.69390        4.42190
C         -9.68210       21.00690        4.82570
C        -10.66520       20.03120        4.13880
C         -9.91090       20.89610        6.34520
C        -10.04260       22.44680        4.39280
C         -7.21480       20.36780        5.39520
C         -5.85290       20.09840        5.11310
C         -3.05740       19.76060        3.84420
C         -2.28180       20.78840        4.20760
C         -1.05720       20.58840        4.91090
C         -0.83280       21.13450        6.12080
C          0.49820       20.73050        6.55260
C          1.03350       19.87590        5.47870
C          0.09510       19.80470        4.52070
C          2.27840       19.21360        5.38990
N          3.29770       18.66510        5.30270
C          1.08020       21.10420        7.70550
C          2.42370       20.72080        8.09910
C          2.69170       21.29770        9.27970
C          1.53860       22.06540        9.70710
C          0.56640       21.95650        8.78680
C         -0.70010       22.56850        8.92120
N         -1.73660       23.07550        9.04590
C          3.95260       21.16230        9.93070
C          4.43950       19.99540       10.37420
C          5.69780       19.90720       11.03920
S          6.58810       18.44160       10.87390
C          7.93070       18.96860       11.85420
C          7.65470       20.24210       12.32970
C          6.39440       20.77970       11.85370
C          5.91890       22.05710       12.21560
C          6.76340       22.81390       13.05980
C          6.32770       24.23830       13.47010
C          4.96360       24.20680       14.19390
C          7.33020       24.91580       14.42850
C          6.20370       25.12320       12.21060
C          7.99800       22.25690       13.51130
C          8.48680       20.97310       13.18420
C          9.00160       18.02170       11.96780
C         10.13480       18.17620       12.66090
H        -13.01170       36.99990      -30.63750
H        -11.84960       34.86820      -31.41200
H        -12.73670       37.23700      -28.02680
H        -10.15340       33.04590      -27.11670
H         -9.32710       30.64050      -30.48940
H         -9.33090       29.62970      -27.53720
H         -7.47060       31.82990      -26.86230
H         -5.90790       29.33480      -28.19200
H         -3.23240       29.41700      -29.05470
H         -4.75690       29.01970      -29.81050
H         -3.26790       28.36670      -30.45070
H         -1.92050       27.64860      -27.87310
H         -2.02600       26.67320      -29.31900
H         -2.53290       26.01460      -27.78200
H         -5.71710       26.67030      -29.54420
H         -4.75150       25.44450      -28.75790
H         -4.24470       26.10310      -30.29490
H         -3.68150       26.29990      -26.17670
H         -4.79660       26.72590      -24.03640
H         -7.23240       28.69040      -21.78000
H         -6.41380       26.15570      -23.05610
H         -8.73590       26.55260      -20.48660
H         -4.64310       25.48550      -20.58280
H         -7.09210       24.41740      -16.38700
H        -11.19760       25.43610      -16.34400
H         -8.55400       24.57830      -13.91590
H        -10.58580       22.74240      -15.02180
H        -11.87000       21.00980      -14.18230
H        -12.14010       17.57450      -13.95950
H        -12.50110       18.93350      -14.99680
H        -13.69330       17.67960      -14.75290
H        -13.37160       17.29020      -11.79190
H        -14.88310       17.43960      -12.65560
H        -14.54830       18.48190      -11.29380
H        -14.16330       20.70470      -14.21080
H        -15.00600       20.46480      -12.69910
H        -15.34080       19.42250      -14.06090
H        -12.55020       18.85920      -10.57120
H        -10.87190       20.12440       -9.35800
H         -8.09090       23.03740       -9.19510
H         -9.87060       20.83960       -8.41940
H        -10.27110       20.91100       -5.89760
H         -6.49810       22.26880       -7.25870
H         -6.87310       21.42200       -2.45750
H        -10.53820       19.88580       -1.02800
H         -8.39020       20.01230        0.69260
H         -5.99800       21.23410       -0.51890
H         -8.57990       20.99930        2.32230
H        -10.43120       19.02760        4.42670
H        -10.57890       20.12690        3.07660
H        -11.66590       20.26390        4.43780
H         -9.66800       19.90640        6.67120
H        -10.93690       21.10310        6.56740
H         -9.28670       21.60190        6.85230
H         -9.89200       22.55050        3.33860
H         -9.41760       23.14250        4.91260
H        -11.06780       22.64370        4.62770
H         -7.50910       20.32640        6.38350
H         -5.15400       19.86160        5.83450
H         -2.75260       18.78920        4.01280
H         -2.57670       21.74920        3.97330
H         -1.48750       21.73280        6.64840
H          0.18230       19.27240        3.64090
H          3.06130       20.11080        7.56390
H          1.47480       22.61020       10.58120
H          4.52290       22.01140       10.06830
H          3.88770       19.13530       10.23020
H          5.01030       22.41740       11.88450
H          5.03830       23.59580       15.06910
H          4.22130       23.80180       13.53830
H          4.68640       25.20110       14.47570
H          7.43560       24.32210       15.31240
H          6.96970       25.88800       14.69270
H          8.28020       25.00710       13.94470
H          5.51270       24.67580       11.52700
H          7.16140       25.21300       11.74200
H          5.85090       26.09400       12.49000
H          8.58260       22.84180       14.12870
H          9.38130       20.60560       13.54460
H          8.88580       17.12920       11.46270
H         10.30400       19.04880       13.18530
H         10.84000       17.42280       12.67140
