214
630_1_01010101.out	Energy:   -5354.9895315
C         -5.72940       11.82700       -5.86800
C         -4.56630       11.47770       -6.47700
C         -4.73590       11.60500       -7.90810
C         -6.13010       12.02870       -8.10880
C         -6.71060       12.15040       -6.87380
C         -6.77230       12.17360       -9.34900
N         -7.31920       12.26270      -10.36230
C         -3.78630       11.43110       -8.88470
C         -3.87330       11.78440      -10.26480
C         -2.66860       11.52130      -10.88310
C         -1.77480       10.92980       -9.88380
C         -2.42130       10.88250       -8.69130
C         -1.91870       10.31790       -7.50280
N         -1.49540        9.81020       -6.55760
C         -2.33510       11.86040      -12.22480
C         -1.15820       11.52140      -12.81650
C         -0.63860       11.89970      -14.10620
C         -1.34970       12.69400      -15.04330
O         -2.59640       13.17010      -14.72830
C         -2.77180       14.58880      -14.60210
C         -4.25250       14.83530      -14.36470
C         -0.83970       12.95900      -16.31360
O         -1.52400       13.74970      -17.20420
C         -2.64420       13.18450      -17.88150
C         -2.24870       11.95800      -18.69770
C          0.41740       12.44660      -16.69410
O          0.82660       12.73210      -17.94890
C          2.00720       12.16810      -18.50200
C          1.80780       10.69970      -18.86970
C          1.14470       11.70900      -15.77010
C          0.65020       11.43900      -14.49160
C          1.54540       10.68680      -13.61740
C          1.84260       10.86270      -12.28680
C          2.88010        9.94370      -11.90870
C          3.19130        9.16360      -13.11680
C          2.39370        9.62070      -14.12580
C          4.11310        8.10490      -13.22770
N          4.86250        7.23740      -13.35530
C          3.50670        9.80920      -10.68810
C          4.62250        8.98130      -10.38730
C          4.93660        9.09350       -9.04770
C          3.99200       10.03470       -8.44500
C          3.13710       10.46850       -9.40960
C          2.02630       11.31510       -9.23760
N          1.09500       11.98310       -9.10300
C          5.89410        8.26870       -8.39590
C          6.18840        8.20780       -7.07240
C          6.95160        7.09760       -6.52250
C          7.92370        7.34230       -5.53190
O          8.03900        8.62640       -5.10700
C          8.30570        8.91460       -3.72960
C          7.45810       10.12030       -3.34610
C          8.75570        6.30990       -5.08900
O          9.73420        6.54750       -4.14920
C         10.99650        7.01690       -4.62410
C         11.76760        5.93460       -5.37320
C          8.57570        5.00400       -5.59050
O          9.41710        4.05770       -5.11840
C          9.30190        2.69900       -5.52630
C         10.39260        1.92570       -4.80050
C          7.56270        4.74490       -6.51290
C          6.74820        5.77400       -6.97320
C          5.58020        5.49010       -7.81060
C          4.33510        6.00650       -7.57210
C          3.48270        5.72410       -8.69020
C          4.27940        4.87040       -9.59260
C          5.52910        4.73960       -9.05340
C          3.81830        4.31210      -10.79940
N          3.43870        3.84270      -11.78230
C          2.26530        6.31250       -8.93730
C          1.42690        6.19410      -10.08750
C          0.31080        6.98720       -9.92230
C          0.42610        7.65770       -8.62530
C          1.59060        7.28440       -8.03900
C          2.09580        7.82470       -6.83980
N          2.51170        8.33060       -5.88980
C         -0.75430        7.18890      -10.84950
C         -1.90470        7.81960      -10.50130
C         -3.04140        8.17640      -11.32280
C         -2.91030        8.51290      -12.68860
O         -1.67270        8.35640      -13.22430
C         -1.44050        8.12580      -14.61570
C         -0.17140        7.29080      -14.72290
C         -3.98080        9.08340      -13.39330
O         -3.78390        9.38340      -14.71150
C         -4.26590       10.59550      -15.29730
C         -5.34920       10.29270      -16.32540
C         -5.21310        9.29910      -12.73570
O         -6.20460        9.86910      -13.46120
C         -7.46760       10.20410      -12.89220
C         -8.39180        8.99190      -12.82690
C         -5.35520        8.92690      -11.40390
C         -4.30020        8.35060      -10.69770
C         -4.53100        7.87010       -9.34720
C         -5.39210        8.38000       -8.40780
C         -5.24760        7.63900       -7.18360
C         -4.31300        6.54220       -7.48240
C         -3.89920        6.68890       -8.77360
C         -4.05480        5.39740       -6.70080
N         -3.86840        4.39990       -6.15440
C         -5.84830        7.97120       -5.99070
C         -6.94470        8.88400       -5.84280
C         -7.27180        8.99850       -4.51210
C         -6.36600        8.13160       -3.76060
C         -5.51350        7.51800       -4.62690
C         -4.40620        6.75240       -4.20560
N         -3.49370        6.20800       -3.75960
C         -8.34070        9.78350       -3.95810
C         -8.44480       10.24120       -2.69110
C         -7.40990       10.23360       -1.66780
C         -7.77400       10.10060       -0.31100
O         -9.10390        9.90450        0.00150
C         -9.61980        8.59110       -0.23520
C        -11.10570        8.62200        0.08170
C         -6.81090       10.13770        0.69680
O         -7.07290        9.99330        2.02080
C         -8.31680       10.40450        2.58500
C         -8.04710       10.75430        4.04260
C         -5.44760       10.30300        0.34680
O         -4.57160       10.32370        1.37740
C         -3.17150       10.20540        1.16830
C         -2.78650        8.79780        0.71960
C         -5.09340       10.45780       -0.99000
C         -6.06230       10.43170       -1.97860
H         -5.91890       11.86530       -4.80620
H         -3.64570       11.19100       -5.99580
H         -7.73250       12.43380       -6.67240
H         -4.73370       12.23450      -10.73250
H         -0.76080       10.61150      -10.06770
H         -3.08620       12.44440      -12.73890
H         -0.50960       10.85640      -12.25560
H         -2.43560       15.10180      -15.51140
H         -2.17650       14.95240      -13.75160
H         -4.83220       14.45280      -15.20450
H         -4.43630       15.90380      -14.26070
H         -4.57740       14.32710      -13.45700
H         -3.00980       13.97920      -18.54060
H         -3.43800       12.92820      -17.16420
H         -1.41820       12.20520      -19.35810
H         -3.09670       11.62430      -19.29440
H         -1.93930       11.14700      -18.03820
H          2.85790       12.28940      -17.81720
H          2.20400       12.75450      -19.40630
H          1.60560       10.10130      -17.98230
H          2.70620       10.32040      -19.35480
H          0.96540       10.60240      -19.55380
H          2.13490       11.35480      -16.02380
H          1.44980       11.62710      -11.63690
H          2.37250        9.24630      -15.13790
H          5.13910        8.35590      -11.09620
H          3.97040       10.30190       -7.39950
H          6.35580        7.53160       -9.04930
H          5.87830        8.98810       -6.38460
H          9.37250        9.14030       -3.60220
H          8.04900        8.05110       -3.10520
H          7.71050       10.97020       -3.97910
H          7.64010       10.38280       -2.30470
H          6.40180        9.88860       -3.47850
H         11.54650        7.31800       -3.72600
H         10.85530        7.89910       -5.26650
H         11.83830        5.03890       -4.75800
H         12.77040        6.29390       -5.60250
H         11.26170        5.67820       -6.30310
H          9.43100        2.61650       -6.61570
H          8.31020        2.30660       -5.25820
H         11.37100        2.32130       -5.07100
H         10.34350        0.87260       -5.07370
H         10.26180        2.02430       -3.72360
H          7.37610        3.73640       -6.85740
H          4.05390        6.58990       -6.71260
H          6.36190        4.20330       -9.48180
H          1.63980        5.57050      -10.94080
H         -0.28190        8.36270       -8.21880
H         -0.61160        6.78780      -11.84550
H         -2.01760        8.10940       -9.46010
H         -1.31090        9.08670      -15.13220
H         -2.28440        7.58880      -15.06260
H          0.64200        7.78410      -14.19220
H          0.10500        7.17110      -15.76970
H         -0.32920        6.30820      -14.27970
H         -3.40420       11.05260      -15.80000
H         -4.62130       11.29040      -14.52990
H         -4.94590        9.65050      -17.10810
H         -5.69800       11.22370      -16.77150
H         -6.18820        9.78360      -15.85560
H         -7.89200       10.95450      -13.56930
H         -7.34140       10.66440      -11.90350
H         -8.50980        8.56300      -13.82160
H         -9.36740        9.30150      -12.45440
H         -7.98810        8.22690      -12.16540
H         -6.30590        9.04730      -10.90370
H         -5.99010        9.27170       -8.50860
H         -3.26810        6.00530       -9.32040
H         -7.44150        9.38010       -6.66200
H         -6.39290        7.98600       -2.69260
H         -9.15310       10.00550       -4.64610
H         -9.37820       10.71210       -2.39220
H         -9.09940        7.86590        0.40830
H         -9.45440        8.30750       -1.28550
H        -11.25820        8.91070        1.12130
H        -11.54020        7.63690       -0.08290
H        -11.60720        9.34680       -0.55890
H         -9.04950        9.58820        2.51990
H         -8.71060       11.27570        2.04630
H         -7.63650        9.88880        4.56120
H         -8.97390       11.05700        4.52840
H         -7.32680       11.56950        4.10160
H         -2.72240       10.42200        2.14390
H         -2.81560       10.95710        0.44910
H         -3.13910        8.06920        1.44870
H         -1.70280        8.72550        0.63840
H         -3.22940        8.56470       -0.24760
H         -4.06160       10.62250       -1.27030
H         -5.77020       10.59640       -3.00840
