138
630_20_01010101.out	Energy:   -4327.4344492
C          3.67110        0.84080       -2.73480
C          2.34950        0.73460       -3.00390
C          1.75420        2.06010       -2.95500
C          2.86260        2.98020       -2.62830
C          3.99670        2.23470       -2.50000
C          2.76600        4.37630       -2.47490
N          2.70570        5.52080       -2.34560
C          0.44460        2.39470       -3.15780
C         -0.14530        3.70570       -3.09700
C         -1.49380        3.61000       -3.33430
C         -1.81050        2.20050       -3.56820
C         -0.67020        1.46990       -3.47040
C         -0.57370        0.07350       -3.64020
N         -0.52520       -1.06890       -3.78670
C         -2.41910        4.70210       -3.34060
C         -3.75590        4.57430       -3.50600
C         -4.71580        5.65700       -3.49530
C         -6.08170        5.35070       -3.53020
C         -7.03890        6.35250       -3.50270
N         -8.42780        5.92110       -3.41680
O         -8.70020        4.84720       -3.88660
O         -9.21090        6.64680       -2.85990
C         -6.68770        7.71350       -3.47170
C         -5.31520        8.00620       -3.43060
C         -4.35740        7.01510       -3.43610
C         -7.63960        8.81080       -3.51830
C         -7.50940       10.00400       -2.86270
C         -8.64830       10.83500       -3.16210
C         -9.47650       10.05540       -4.10360
C         -8.86850        8.85620       -4.30790
C        -10.66760       10.49620       -4.71520
N        -11.63580       10.85240       -5.22990
C         -8.92170       12.08260       -2.66350
C        -10.09320       12.88000       -2.88750
C         -9.98210       14.05890       -2.18900
C         -8.69560       14.04920       -1.49280
C         -8.05850       12.88000       -1.76190
C         -6.78440       12.50720       -1.28760
N         -5.73560       12.22430       -0.90130
C        -10.96000       15.10180       -2.15200
C        -10.81300       16.26770       -1.47980
C        -11.78070       17.34170       -1.42890
C        -11.43480       18.53440       -0.78180
C        -12.32310       19.59640       -0.71940
N        -11.90270       20.75510        0.05700
O        -10.71890       20.94250        0.16820
O        -12.75680       21.43930        0.55910
C        -13.59790       19.53110       -1.30810
C        -13.94340       18.31940       -1.92670
C        -13.06820       17.25640       -1.98740
C        -14.54070       20.63680       -1.35810
C        -15.89990       20.53310       -1.25270
C        -16.48680       21.84130       -1.40340
C        -15.35730       22.76170       -1.64330
C        -14.20700       22.03700       -1.60810
C        -15.45470       24.14600       -1.89080
N        -15.52160       25.27660       -2.10590
C        -17.81640       22.17010       -1.34070
C        -18.40540       23.47010       -1.48580
C        -19.77080       23.36840       -1.36370
C        -20.09720       21.96180       -1.12800
C        -18.94680       21.23960       -1.11400
C        -18.85080       19.84540       -0.93010
N        -18.79370       18.70280       -0.78650
C        -20.69780       24.45180       -1.47010
C        -22.03980       24.33320       -1.33650
C        -22.99900       25.40850       -1.46430
C        -24.35620       25.13440       -1.25540
C        -25.31330       26.12920       -1.38130
N        -26.70430       25.71720       -1.24690
O        -26.92600       24.73810       -0.58310
O        -27.54260       26.36020       -1.82430
C        -24.96780       27.45210       -1.70650
C        -23.60620       27.71030       -1.92800
C        -22.64950       26.72500       -1.81330
C        -25.91280       28.55420       -1.79330
C        -25.87040       29.56520       -2.71200
C        -26.96280       30.47430       -2.46490
C        -27.65820       29.94900       -1.27300
C        -27.03060       28.80590       -0.88700
C        -28.76110       30.54620       -0.62940
N        -29.65380       31.03290       -0.08620
C        -27.30390       31.58060       -3.19820
C        -28.42250       32.45840       -2.99860
C        -28.41920       33.42860       -3.97110
C        -27.26080       33.19580       -4.83420
C        -26.59010       32.10270       -4.38680
C        -25.41140       31.57410       -4.95040
N        -24.44340       31.16450       -5.42440
C        -29.38400       34.47720       -4.11340
C        -29.36370       35.40350       -5.09810
C        -30.32340       36.47610       -5.28040
C        -31.39660       36.69520       -4.40860
C        -32.27430       37.74170       -4.64870
N        -33.38500       37.95650       -3.72950
O        -33.48700       37.20710       -2.79380
O        -34.13070       38.87120       -3.96390
C        -32.12500       38.59280       -5.74040
C        -31.06290       38.37920       -6.60570
C        -30.17650       37.33900       -6.37920
H          4.39210        0.03830       -2.69380
H          1.80330       -0.16840       -3.22090
H          4.98290        2.60360       -2.26270
H          0.39750        4.61310       -2.88800
H         -2.79420        1.81480       -3.78790
H         -1.97810        5.68220       -3.18200
H         -4.18290        3.58460       -3.64100
H         -6.41000        4.31750       -3.54880
H         -5.00620        9.04520       -3.41690
H         -3.31210        7.29980       -3.40800
H         -6.72490       10.26970       -2.17350
H         -9.20830        8.06970       -4.96240
H        -10.93060       12.58360       -3.49790
H         -8.32200       14.84610       -0.86830
H        -11.86520       14.90790       -2.72050
H         -9.89320       16.45330       -0.93250
H        -10.46590       18.63690       -0.30600
H        -14.91930       18.23390       -2.39100
H        -13.38720       16.34520       -2.47950
H        -16.45560       19.63510       -1.03930
H        -13.20820       22.41170       -1.76370
H        -17.85350       24.37870       -1.66310
H        -21.09390       21.57060       -0.99300
H        -20.25240       25.42080       -1.67730
H        -22.46810       23.35980       -1.11460
H        -24.67940       24.12850       -1.01150
H        -23.30370       28.72160       -2.17530
H        -21.61260       26.98140       -1.99590
H        -25.17940       29.64930       -3.53440
H        -27.28490       28.18850       -0.04050
H        -29.15140       32.35420       -2.21150
H        -26.98900       33.80140       -5.68510
H        -30.16910       34.48960       -3.36290
H        -28.57280       35.36990       -5.84230
H        -31.55980       36.06430       -3.54330
H        -32.83000       39.39970       -5.89710
H        -30.92630       39.02910       -7.46200
H        -29.35010       37.18380       -7.06430
