150
630_687_01010101.out	Energy:   -7300.1113788
C         -7.06800       10.32050       -5.88630
C         -6.96160        9.99990       -4.57670
C         -6.35390        8.66560       -4.48050
C         -6.13750        8.25400       -5.87240
C         -6.53810        9.23790       -6.68750
C         -5.55640        7.03720       -6.26550
N         -5.07070        6.00910       -6.48360
C         -6.05160        7.92420       -3.38690
C         -5.60640        6.51600       -3.40650
C         -5.49730        6.04050       -2.15560
C         -5.74250        7.16200       -1.26470
C         -6.11690        8.25280       -1.96100
C         -6.47770        9.46180       -1.34110
N         -6.77990       10.42300       -0.75860
C         -5.22460        4.66260       -1.79650
C         -5.60140        3.58290       -2.51320
C         -5.54970        2.20050       -2.01880
C         -4.40880        1.57130       -1.64120
O         -4.31650        0.28890       -1.11960
C         -5.41590       -0.45160       -0.90540
C         -5.32630       -1.70110       -0.33900
S         -6.86990       -2.42740       -0.18550
C         -7.64040       -1.05880       -0.88030
C         -6.73620       -0.07680       -1.21500
S         -7.14340        1.45660       -1.94320
C         -3.09040        2.16080       -1.80050
C         -2.04680        1.87500       -1.00720
C         -0.73610        2.42800       -1.20420
C          0.39290        1.82190       -0.78150
C          1.53570        2.66040       -1.15420
C          0.95800        3.85060       -1.79320
C         -0.37470        3.70150       -1.80240
C          1.60490        4.98740       -2.32160
N          2.12180        5.92000       -2.78130
C          2.83420        2.36270       -0.94100
C          3.96570        3.19870       -1.33150
C          5.09970        2.59680       -0.92980
C          4.75020        1.34780       -0.27430
C          3.41720        1.18480       -0.28110
C          2.76860        0.05720        0.27180
N          2.24280       -0.87220        0.72670
C          6.41740        3.14330       -1.08150
C          6.98940        3.44670       -2.25960
C          8.36500        3.93860       -2.43410
C          8.73430        4.67950       -3.51190
O         10.00160        5.18080       -3.77290
C         11.01260        4.96780       -2.91420
C         12.26590        5.47950       -3.14760
S         13.35670        5.06460       -1.89180
C         12.14030        4.19860       -1.04990
C         10.94180        4.22650       -1.72270
S          9.49820        3.43220       -1.18240
C          7.81630        5.08270       -4.56080
C          7.58070        6.36700       -4.86320
C          6.66340        6.75360       -5.89630
C          5.57820        7.51850       -5.66530
C          4.87290        7.69810       -6.93580
C          5.64090        6.94730       -7.93600
C          6.69790        6.39980       -7.30340
C          5.37900        6.74350       -9.31280
N          5.17360        6.56780      -10.43820
C          3.75280        8.43060       -7.10080
C          3.10720        8.69020       -8.38230
C          2.06230        9.51630       -8.20120
C          1.97400        9.79670       -6.77460
C          2.94620        9.15480       -6.11350
C          3.13140        9.24790       -4.71240
N          3.27730        9.36670       -3.56490
C          1.22660       10.04060       -9.26140
C          1.37650        9.72380      -10.55860
C          0.62070       10.25030      -11.68340
C         -0.70300       10.02680      -11.86030
O         -1.45180       10.38780      -12.96830
C         -0.88220       11.06360      -13.98220
C         -1.61960       11.45650      -15.07310
S         -0.66450       12.34140      -16.18670
C          0.73440       12.16670      -15.20900
C          0.46830       11.45320      -14.06430
S          1.64690       11.07510      -12.84050
C         -1.52350        9.29790      -10.91350
C         -2.10630        8.14250      -11.24160
C         -2.97390        7.40320      -10.38120
C         -2.73700        6.12050      -10.04410
C         -3.94170        5.58480       -9.41800
C         -4.93570        6.67360       -9.48850
C         -4.30670        7.77050       -9.94070
C         -6.30870        6.66610       -9.14840
N         -7.42430        6.72610       -8.83160
C         -4.06470        4.33920       -8.91480
C         -5.32030        3.75340       -8.45510
C         -5.09560        2.48270       -8.07370
C         -3.66070        2.23300       -8.17780
C         -3.04250        3.29320       -8.73290
C         -1.65840        3.33390       -9.06030
N         -0.54390        3.34670       -9.35720
C         -6.16620        1.55070       -7.79950
C         -7.04890        1.18370       -8.75050
C         -8.11300        0.18920       -8.59360
C         -8.30620       -0.81640       -9.49290
O         -9.26030       -1.82810       -9.36720
C         -9.81670       -2.06030       -8.16020
C        -10.40570       -3.26280       -7.84660
S        -10.96420       -3.28010       -6.22300
C        -10.44810       -1.66320       -5.96950
C         -9.84590       -1.14370       -7.09030
S         -9.18310        0.46350       -7.22430
C         -7.44880       -1.03130      -10.65790
C         -7.79100       -1.70860      -11.76350
H         -7.46450       11.19860       -6.25600
H         -7.25600       10.58990       -3.78280
H         -6.47870        9.22620       -7.71770
H         -5.40710        5.97370       -4.26160
H         -5.64330        7.12760       -0.23800
H         -4.70070        4.49400       -0.92350
H         -5.94890        3.73880       -3.47230
H         -4.44230       -2.14460       -0.04420
H         -8.65880       -0.98210       -1.02900
H         -2.94870        2.83730       -2.56690
H         -2.19300        1.22680       -0.21760
H          0.44310        0.92080       -0.28090
H         -1.04480        4.39000       -2.17900
H          3.90560        4.09960       -1.83130
H          5.42620        0.68440        0.13560
H          6.96570        3.31600       -0.22440
H          6.41760        3.32490       -3.11000
H         12.51890        6.04260       -3.97460
H         12.28920        3.71630       -0.14980
H          7.32450        4.35020       -5.09620
H          8.07580        7.10260       -4.33500
H          5.29420        7.90900       -4.75320
H          7.42210        5.81720       -7.75190
H          3.40670        8.29960       -9.28940
H          1.26380       10.40340       -6.33580
H          0.47160       10.69600       -9.00550
H          2.10830        9.03090      -10.78070
H         -2.62120       11.24540      -15.20480
H          1.66170       12.55000      -15.45050
H         -1.66010        9.68050       -9.96480
H         -1.91720        7.75760      -12.18030
H         -1.85640        5.60590      -10.20130
H         -4.70680        8.72130       -9.97030
H         -6.23230        4.23560       -8.42710
H         -3.18820        1.36860       -7.87030
H         -6.25740        1.15570       -6.85050
H         -6.96760        1.64430       -9.67050
H        -10.50000       -4.05350       -8.50300
H        -10.57420       -1.14550       -5.08570
H         -6.49960       -0.62740      -10.62650
H         -8.72970       -2.13030      -11.84040
H         -7.11560       -1.80800      -12.53740
