150
630_34_01010101.out	Energy:   -7516.7108729
C          3.14660        9.35330       12.86090
C          3.06250        8.12260       13.42470
C          1.66690        7.73900       13.50140
C          0.91250        8.86570       12.92580
C          1.81500        9.82060       12.54860
C         -0.48510        8.94530       12.78620
N         -1.63050        9.02320       12.66690
C          1.14150        6.57510       14.00310
C         -0.23850        6.20670       14.07650
C         -0.35010        4.95900       14.64740
C          0.99830        4.49050       14.96070
C          1.89600        5.43850       14.58440
C          3.29480        5.34720       14.72510
N          4.43560        5.24190       14.85600
C         -1.53090        4.19930       14.91610
C         -2.78060        4.63500       14.61360
C         -4.03760        3.98020       14.82890
C         -4.31650        2.75930       15.44140
O         -3.46510        1.89030       15.99420
S         -5.99430        2.32070       15.50010
C         -6.41330        3.79400       14.68300
C         -5.27470        4.55570       14.40270
N         -5.64220        5.70620       13.75830
C         -7.01090        5.69010       13.62210
C         -7.51700        4.50130       14.19390
S         -9.23020        4.42020       14.05290
C         -9.25340        5.97090       13.23170
C         -7.98970        6.52290       13.07720
C        -10.48210        6.53330       12.79540
C        -10.66460        7.73170       12.12900
C        -12.04820        7.91790       11.86660
C        -12.73610        6.73420       12.42900
C        -11.79140        5.92040       12.97640
C        -14.12220        6.48860       12.40070
N        -15.25500        6.27000       12.38490
C        -12.64590        8.97900       11.21010
C        -14.02840        9.17140       10.92910
C        -14.19100       10.35550       10.23470
C        -12.87580       10.95530       10.06400
C        -11.94320       10.14800       10.64190
C        -10.55800       10.39760       10.67960
N         -9.42820       10.63080       10.69430
C        -15.38190       10.95830        9.72580
C        -16.62810       10.43310        9.84180
C        -17.85430       10.98720        9.33700
C        -18.08480       12.25060        8.79550
O        -17.23460       13.27640        8.67580
S        -19.70320       12.54690        8.24430
C        -20.15970       10.94680        8.73220
C        -19.08350       10.25850        9.30260
N        -19.49430        9.00510        9.67590
C        -20.82700        8.88380        9.35050
C        -21.26100       10.08750        8.75120
S        -22.91650       10.00520        8.29840
C        -23.02190        8.36780        8.92270
C        -21.82460        7.91040        9.45490
C        -24.26060        7.67860        8.83700
C        -24.59920        6.43800        9.34940
C        -25.95400        6.15360        9.02780
C        -26.44630        7.31290        8.25020
C        -25.43070        8.21370        8.15460
C        -27.73150        7.47440        7.69840
N        -28.77430        7.63230        7.22980
C        -26.70740        5.04650        9.37900
C        -28.06860        4.79670        9.05490
C        -28.46600        3.60000        9.62240
C        -27.32320        3.05030       10.33700
C        -26.26450        3.89850       10.19620
C        -24.97870        3.71600       10.73890
N        -23.93040        3.55000       11.19150
C        -29.75230        2.98080        9.55840
C        -30.77710        3.48290        8.82320
C        -32.10590        2.95890        8.70940
C        -33.05450        3.51940        7.85440
O        -32.88580        4.56400        7.03640
S        -34.61260        2.76540        7.85800
C        -34.04990        1.63770        9.05080
C        -32.70990        1.86170        9.39570
N        -32.33810        0.95080       10.35150
C        -33.42510        0.15230       10.62530
C        -34.50840        0.56500        9.81950
S        -35.91200       -0.38140       10.11960
C        -35.04350       -1.31610       11.32490
C        -33.72460       -0.91370       11.47830
C        -35.72420       -2.34340       12.03100
C        -35.23220       -3.17130       13.02580
C        -36.27110       -4.03000       13.47560
C        -37.46610       -3.68600       12.67580
C        -37.12370       -2.68270       11.82080
C        -38.73930       -4.27990       12.76700
N        -39.79370       -4.74640       12.81540
C        -36.21450       -4.98990       14.47230
C        -37.26880       -5.81520       14.94560
C        -36.80060       -6.62290       15.96760
C        -35.38960       -6.31870       16.15980
C        -35.02670       -5.34600       15.27630
C        -33.74000       -4.78740       15.15710
N        -32.67690       -4.34480       15.08290
C        -37.58170       -7.56270       16.69840
C        -37.12140       -8.34950       17.70600
C        -37.89860       -9.28170       18.46530
C        -37.35390      -10.07730       19.47070
O        -36.07120      -10.10930       19.86680
S        -38.46060      -11.13140       20.28070
C        -39.74690      -10.53350       19.28010
C        -39.29970       -9.56930       18.37410
N        -40.36440       -9.13780       17.62290
C        -41.48200       -9.81760       18.04230
C        -41.12740      -10.69520       19.07560
S        -42.49580      -11.57600       19.64530
C        -43.50650      -10.75730       18.49730
C        -42.85610       -9.85560       17.71060
H          4.04670        9.91630       12.66490
H          3.88120        7.51150       13.76650
H          1.58670       10.77150       12.09170
H         -1.04920        6.82680       13.73220
H          1.22080        3.53790       15.41800
H         -1.36870        3.23010       15.38220
H         -2.87490        5.60820       14.13760
H         -2.54420        2.19200       15.95590
H         -5.02570        6.43600       13.44170
H         -7.80110        7.47090       12.59720
H         -9.88550        8.41960       11.84640
H        -11.95890        4.97400       13.46770
H        -14.81200        8.48960       11.21560
H        -12.69200       11.89080        9.55710
H        -15.22310       11.89290        9.19260
H        -16.74230        9.47440       10.34180
H        -16.37580       13.09820        9.08990
H        -18.92750        8.30160       10.11890
H        -21.69360        6.92740        9.88110
H        -23.94990        5.78890        9.91360
H        -25.45990        9.16900        7.65290
H        -28.68500        5.45480        8.46590
H        -27.33230        2.11780       10.88110
H        -29.88280        2.06720       10.13110
H        -30.59530        4.38460        8.24060
H        -31.99740        4.94760        7.10300
H        -31.43680        0.88490       10.79260
H        -33.03410       -1.36840       12.17220
H        -34.22620       -3.16490       13.41120
H        -37.76660       -2.20120       11.09970
H        -38.27950       -5.80680       14.57220
H        -34.74310       -6.78900       16.88530
H        -38.62490       -7.62480       16.40300
H        -36.07070       -8.28310       17.98370
H        -35.52340       -9.49100       19.36050
H        -40.34120       -8.44600       16.89360
H        -44.55770      -10.99430       18.46620
H        -43.32490       -9.25670       16.94440
