162
630_137_01010101.out	Energy:   -5009.7126618
C         26.15900        2.44670       -9.81820
C         24.98100        3.10260       -9.92400
C         25.24670        4.52900      -10.01660
C         26.71740        4.66320       -9.95820
C         27.24350        3.41220       -9.83930
C         27.44460        5.86780      -10.01520
N         28.05670        6.84400      -10.06020
C         24.33420        5.54210      -10.12350
C         24.59840        6.95390      -10.19080
C         23.40560        7.63830      -10.25810
C         22.32300        6.65280      -10.24870
C         22.85980        5.40840      -10.17090
C         22.13160        4.20070      -10.13880
N         21.51420        3.22790      -10.11210
C         23.25930        9.05260      -10.30010
C         22.06730        9.71430      -10.29370
C         22.00100       11.13340      -10.28540
N         23.09780       11.88560      -10.32980
C         22.68170       13.17230      -10.26710
C         21.22240       13.24930      -10.16180
C         20.79010       14.66410      -10.09090
O         19.66760       15.09820       -9.98490
C         22.06980       15.40190      -10.17440
C         23.19060       14.45110      -10.27610
N         24.37210       15.12340      -10.35690
C         24.05990       16.40080      -10.31540
C         22.63430       16.63810      -10.20290
C         20.76640       11.95120      -10.18500
C         19.44750       11.42340      -10.12660
C         18.32540       12.16770       -9.90840
C         17.01890       11.60980       -9.84970
C         16.62230       10.31460      -10.12280
C         15.22040       10.19570       -9.90460
C         14.75360       11.53820       -9.47460
C         15.82790       12.36770       -9.46070
C         13.42150       11.89960       -9.18630
N         12.33580       12.22020       -8.96700
C         14.44090        9.06800      -10.05590
C         13.06290        8.92190       -9.72130
C         12.65280        7.63590      -10.02440
C         13.79420        6.92930      -10.59600
C         14.87180        7.76040      -10.59640
C         16.16950        7.44040      -11.04350
N         17.23050        7.16550      -11.40240
C         11.37450        7.05800       -9.78960
C         10.43250        7.65480       -9.00310
C          9.17090        7.08210       -8.70870
N          8.70540        5.99350       -9.31800
C          7.48670        5.75040       -8.77980
C          7.15590        6.73950       -7.75050
C          5.83030        6.44520       -7.16080
O          5.25380        7.04800       -6.28680
C          5.40480        5.23880       -7.90340
C          6.44410        4.85470       -8.87460
N          6.06300        3.73890       -9.55460
C          4.88000        3.41490       -9.07590
C          4.41670        4.31420       -8.03950
C          8.22720        7.59870       -7.68570
C          8.50930        8.69580       -6.82980
C          7.69880        9.15960       -5.83510
C          8.09790       10.21050       -4.96460
C          9.30950       10.87830       -4.93150
C          9.29360       11.83360       -3.87990
C          7.95820       11.72080       -3.23990
C          7.26450       10.75060       -3.89010
C          7.51250       12.45860       -2.12580
N          7.14460       13.05030       -1.20640
C         10.31300       12.68620       -3.50520
C         10.26750       13.68150       -2.48910
C         11.49790       14.31110       -2.40550
C         12.37340       13.70060       -3.40030
C         11.68150       12.73540       -4.06580
C         12.19840       11.89010       -5.06890
N         12.64930       11.19210       -5.86890
C         11.88120       15.33060       -1.49270
C         11.01890       15.85840       -0.57460
C         11.39030       16.82340        0.39410
N         12.55790       17.46470        0.34890
C         12.52550       18.38450        1.34150
C         11.24860       18.33230        2.06000
C         11.22440       19.33560        3.15070
O         10.34170       19.55560        3.94040
C         12.55310       19.98100        3.01940
C         13.30310       19.36820        1.90870
N         14.53350       19.94360        1.79730
C         14.59110       20.84930        2.74950
C         13.38450       20.91610        3.55020
C         10.52580       17.31400        1.49720
C          9.23860       16.81840        1.87900
C          8.83780       15.53110        1.70430
C          7.54040       15.01520        1.99180
C          6.40380       15.66670        2.42170
C          5.32410       14.73190        2.48250
C          5.88720       13.42290        2.07330
C          7.19910       13.60800        1.78110
C          5.19390       12.19890        1.98800
N          4.65710       11.18110        1.91460
C          4.00700       14.97970        2.80170
C          2.92790       14.04420        2.81560
C          1.75670       14.70020        3.14490
C          2.08240       16.10750        3.36380
C          3.41550       16.28580        3.16410
C          4.10720       17.50980        3.27070
N          4.64810       18.52410        3.35780
C          0.47440       14.09960        3.22640
C         -0.69110       14.74980        3.51710
C         -1.92900       14.05670        3.54590
N         -1.99000       12.74730        3.29260
C         -3.29210       12.40490        3.38560
C         -4.12150       13.57400        3.72340
C         -5.54420       13.17120        3.81350
O         -6.50540       13.85640        4.06980
C         -5.49710       11.72250        3.51040
C         -4.10840       11.30660        3.25940
N         -4.06010        9.97280        2.97580
C         -5.30400        9.55140        3.03400
C         -6.24910       10.59930        3.36340
C         -3.26400       14.63410        3.82860
C         -3.51050       16.02200        4.13570
C         -4.71830       16.53660        4.38010
H         26.30340        1.38050       -9.73030
H         23.99590        2.66650       -9.93730
H         28.29090        3.16050       -9.77070
H         25.58080        7.39740      -10.17710
H         21.27120        6.88890      -10.29960
H         24.17290        9.64190      -10.31560
H         21.13400        9.16270      -10.27080
H         24.82210       17.16600      -10.36290
H         22.16430       17.60710      -10.15520
H         19.34990       10.34870      -10.24990
H         18.41080       13.23780       -9.74910
H         17.25950        9.50640      -10.44190
H         15.83380       13.41590       -9.20380
H         12.45490        9.70260       -9.29440
H         13.76880        5.90530      -10.93600
H         11.16460        6.08100      -10.21540
H         10.66440        8.60490       -8.53400
H          4.34190        2.55400       -9.44750
H          3.47980        4.23110       -7.51280
H          9.47130        9.17780       -6.97540
H          6.72220        8.71470       -5.67310
H         10.14620       10.71960       -5.59150
H          6.26400       10.41160       -3.66880
H          9.39940       13.89810       -1.88930
H         13.40280       13.98250       -3.56080
H         12.91130       15.67510       -1.50740
H          9.98540       15.53280       -0.57310
H         15.47070       21.46270        2.88730
H         13.22310       21.58320        4.38140
H          8.58540       17.52920        2.37800
H          9.54800       14.80210        1.32490
H          6.32060       16.71420        2.66090
H          7.89290       12.86140        1.42660
H          3.01550       12.99330        2.59350
H          1.37200       16.87230        3.63750
H          0.42180       13.03170        3.02690
H         -0.69230       15.81430        3.72350
H         -5.55480        8.51630        2.84710
H         -7.31510       10.47090        3.46080
H         -2.63680       16.66780        4.16260
H         -5.61960       15.94000        4.36590
H         -4.84390       17.58660        4.60510
