114
630_900_01010101.out	Energy:   -3565.0853302
C         -9.49280       -3.35970       -2.91490
C         -9.75340       -3.66780       -1.63170
C         -9.86320       -2.41290       -0.87580
C         -9.63310       -1.34240       -1.86280
C         -9.41730       -1.92470       -3.05510
C         -9.61170        0.05760       -1.66910
N         -9.58680        1.20920       -1.52340
C        -10.12070       -2.30780        0.44590
C        -10.24130       -1.05840        1.19970
C        -10.46240       -1.35390        2.49580
C        -10.54150       -2.79970        2.62280
C        -10.33450       -3.37850        1.42950
C        -10.33790       -4.77660        1.24120
N        -10.33950       -5.93030        1.10540
C        -10.65050       -0.35920        3.51810
C        -10.32260       -0.56390        4.80280
C        -10.51830        0.45340        5.76590
O        -11.04250        1.69110        5.48940
C        -11.07600        2.38950        6.67560
N        -10.60670        1.66840        7.68180
C        -10.25660        0.46750        7.12240
C        -11.56320        3.71860        6.75200
C        -12.01510        4.37880        5.66580
C        -12.43320        5.71960        6.08300
C        -12.17680        5.77790        7.53240
C        -11.66900        4.59130        7.90570
C        -12.40940        6.84010        8.43450
N        -12.59510        7.70970        9.18020
C        -12.93950        6.66580        5.26610
C        -13.33060        8.01700        5.66700
C        -13.79760        8.67110        4.58500
C        -13.72200        7.76960        3.44590
C        -13.21720        6.58620        3.82630
C        -13.04420        5.50370        2.93260
N        -12.91070        4.62470        2.19150
C        -14.27360       10.02900        4.61820
C        -14.73300       10.67270        3.53430
C        -15.16400       12.01300        3.62770
O        -15.69190       12.57460        4.76140
C        -15.96760       13.88890        4.46150
N        -15.64440       14.18940        3.21370
C        -15.17160       13.01960        2.68190
C        -16.51850       14.77410        5.41730
C        -17.29130       14.34620        6.43880
C        -17.72010       15.52190        7.20260
C        -17.18600       16.61470        6.52790
C        -16.46120       16.21730        5.47390
C        -17.51360       18.07020        6.81880
N        -17.78540       19.27760        7.06010
C        -18.40500       15.68770        8.33030
C        -18.87850       16.85300        9.07470
C        -19.46230       16.42640       10.21280
C        -19.39310       14.98090       10.21870
C        -18.75730       14.59130        9.10700
C        -18.44630       13.13450        8.80450
N        -18.18840       11.92600        8.55350
C        -20.08550       17.30520       11.16060
C        -20.18450       17.03270       12.46870
C        -20.81820       17.94550       13.34310
O        -21.45460       17.56450       14.49700
C        -21.96290       18.71390       15.07040
N        -21.66740       19.78970       14.35860
C        -20.95690       19.31990       13.28980
C        -22.70380       18.69770       16.28000
C        -22.96780       17.55240       16.94110
C        -23.74320       17.87940       18.14090
C        -23.92630       19.34100       18.10350
C        -23.29950       19.80360       17.00850
C        -24.61410       20.17290       19.01580
N        -25.18100       20.85740       19.76220
C        -24.16780       16.98660       19.06020
C        -24.95810       17.29750       20.25260
C        -25.18600       16.15620       20.93410
C        -24.54720       15.06790       20.20870
C        -23.94590       15.53550       19.10410
C        -23.22220       14.70560       18.21620
N        -22.63260       14.01290       17.49930
C        -25.92920       16.09420       22.16850
C        -26.16380       14.95360       22.83490
C        -26.89940       14.95900       24.04270
O        -26.94260       16.01430       24.93090
C        -27.73560       15.58720       25.94500
N        -28.21910       14.37690       25.80480
C        -27.69280       13.97030       24.60680
H         -9.36650       -4.04180       -3.67900
H         -9.85800       -4.61920       -1.24580
H         -9.22680       -1.42250       -3.93630
H        -10.16880       -0.10810        0.80370
H        -10.72930       -3.30690        3.50170
H        -11.05550        0.55190        3.25150
H         -9.92430       -1.47130        5.09070
H         -9.85040       -0.32350        7.64620
H        -12.05880        4.00360        4.70540
H        -11.39540        4.33890        8.86820
H        -13.26050        8.40530        6.62060
H        -14.01420        8.00600        2.48470
H        -14.26090       10.53180        5.51930
H        -14.77120       10.18420        2.62600
H        -14.86190       12.90520        1.70410
H        -17.53660       13.36520        6.64520
H        -15.95270       16.83180        4.81920
H        -18.78210       17.83690        8.77890
H        -19.76830       14.35910       10.95190
H        -20.47860       18.19500       10.81620
H        -19.79610       16.15160       12.84020
H        -20.57310       19.91500       12.53910
H        -22.67380       16.60650       16.65140
H        -23.24920       20.79540       16.72760
H        -25.28700       18.23640       20.52690
H        -24.55560       14.07850       20.50190
H        -26.30020       16.97390       22.56010
H        -25.80310       14.06160       22.46160
H        -27.94350       16.17340       26.76850
H        -27.86460       13.04700       24.17890
