162
630_943_01010101.out	Energy:   -7207.7960686
C          0.95490        1.12130      -18.37940
C          0.67720        0.69510      -17.13410
C          0.35830        1.86890      -16.31000
C          0.46630        3.02320      -17.22200
C          0.82170        2.55830      -18.43270
C          0.26270        4.39450      -16.94550
N          0.09780        5.52250      -16.72610
C          0.07700        1.85220      -14.98810
C         -0.17830        3.02520      -14.15140
C         -0.28850        2.63930      -12.86220
C         -0.17720        1.18460      -12.83170
C          0.00460        0.70550      -14.07500
C          0.03600       -0.67370      -14.38450
N          0.03670       -1.80690      -14.63680
C         -0.58830        3.51900      -11.74980
C         -0.24120        4.81720      -11.70590
C         -0.53210        5.65700      -10.59020
S         -1.43290        7.09260      -10.95270
C         -1.56150        7.61070       -9.30890
C         -0.93330        6.67210       -8.50270
C         -0.23120        5.60750       -9.23650
C          0.57420        4.64680       -8.56020
C          1.43120        3.60790       -9.17310
O          2.02620        3.86310      -10.22120
C          1.52690        2.24710       -8.48220
F          1.21940        2.23870       -7.15470
F          0.68830        1.33470       -9.05020
F          2.78070        1.71980       -8.56270
C          0.59610        4.83330       -7.15260
C         -0.15350        5.81070       -6.45790
C         -0.94750        6.76360       -7.10140
C         -2.23410        8.84220       -9.02260
C         -1.89880        9.63100       -7.97630
C         -2.77200       10.80520       -7.94710
C         -3.59620       10.70360       -9.15580
C         -3.29090        9.53680       -9.75340
C         -4.56340       11.60260       -9.64210
N         -5.36400       12.34840      -10.05360
C         -2.76530       11.75310       -6.98690
C         -3.51820       13.00110       -7.02110
C         -3.11970       13.76510       -5.98560
C         -2.23460       12.97790       -5.14620
C         -2.00470       11.79050       -5.72870
C         -1.25790       10.75580       -5.12020
N         -0.64720        9.90400       -4.62650
C         -3.62760       15.08960       -5.78240
C         -3.02500       16.04550       -5.06210
C         -3.61010       17.33850       -4.92540
S         -2.51940       18.67360       -4.86770
C         -3.75550       19.86970       -5.01680
C         -4.99140       19.23890       -5.05710
C         -4.91780       17.79500       -4.85240
C         -6.08480       16.99910       -4.74290
C         -6.16670       15.57570       -4.39100
O         -6.76740       14.83050       -5.16810
C         -5.56920       15.14140       -3.06310
F         -4.92260       16.13640       -2.39540
F         -6.52960       14.68320       -2.21310
F         -4.67010       14.12490       -3.19040
C         -7.29180       17.69850       -4.96070
C         -7.34640       19.09260       -5.20900
C         -6.20790       19.91910       -5.25520
C         -3.35890       21.24190       -5.06680
C         -4.13610       22.23540       -4.58780
C         -3.47230       23.51530       -4.81550
C         -2.15060       23.18150       -5.35760
C         -2.10850       21.84770       -5.52010
C         -1.07210       24.04300       -5.66220
N         -0.17850       24.74340       -5.90410
C         -4.02580       24.72000       -4.57430
C         -3.36120       26.00280       -4.75600
C         -4.19900       26.97890       -4.35750
C         -5.47170       26.37270       -4.00270
C         -5.38630       25.03790       -4.11700
C         -6.49150       24.17580       -3.93690
N         -7.39920       23.46650       -3.79260
C         -3.85880       28.36610       -4.49510
C         -4.57510       29.39030       -4.01380
C         -4.22830       30.73060       -4.34450
S         -4.45720       31.90840       -3.10970
C         -3.60040       33.14530       -3.95090
C         -3.21320       32.67000       -5.19390
C         -3.71070       31.32890       -5.48500
C         -3.51300       30.72070       -6.75020
C         -4.04100       29.43470       -7.23240
O         -3.22750       28.62990       -7.69330
C         -5.54480       29.20710       -7.18850
F         -6.24920       30.26740       -6.70720
F         -6.04760       28.94990       -8.42800
F         -5.90740       28.13730       -6.42740
C         -2.70910       31.47750       -7.63440
C         -2.18820       32.75810       -7.31750
C         -2.42730       33.41140       -6.09520
C         -3.43250       34.40100       -3.29910
C         -3.42240       35.56770       -3.97650
C         -3.23340       36.65900       -3.02760
C         -3.23440       36.03730       -1.69780
C         -3.33540       34.71090       -1.87610
C         -3.14040       36.64890       -0.42470
N         -3.06550       37.14620        0.61970
C         -3.10760       37.95670       -3.36580
C         -3.03550       39.05580       -2.41330
C         -3.02340       40.21950       -3.08910
C         -2.97630       39.90160       -4.51480
C         -3.01160       38.57260       -4.70270
C         -2.78330       37.93250       -5.95640
N         -2.58500       37.40340       -6.95570
C         -2.81490       41.48260       -2.42340
C         -3.04110       42.68250       -2.97870
C         -2.61710       43.87360       -2.32300
S         -3.70920       44.47450       -1.09920
C         -2.75570       45.83720       -0.76770
C         -1.63940       45.85880       -1.55770
C         -1.50950       44.71710       -2.47150
C         -0.36040       44.61820       -3.32990
C          0.01890       43.55610       -4.29850
O         -0.86430       42.96370       -4.92020
C          1.52820       43.29930       -4.54530
F          2.38080       43.97870       -3.72190
F          1.86430       41.98830       -4.38910
F          1.90560       43.64030       -5.81260
C          0.50210       45.75180       -3.21860
C          0.33370       46.82840       -2.31130
C         -0.74680       46.92130       -1.43400
H          1.22130        0.51650      -19.17210
H          0.68650       -0.28570      -16.81340
H          0.97570        3.13940      -19.27150
H         -0.26110        3.99550      -14.49310
H         -0.23040        0.60650      -11.97840
H         -1.09850        3.12550      -10.94360
H          0.25680        5.22320      -12.51350
H          1.20270        4.21060       -6.59650
H         -0.11220        5.82080       -5.42670
H         -1.49660        7.47300       -6.59120
H         -1.14280        9.43490       -7.30180
H         -3.74190        9.18150      -10.61090
H         -4.23420       13.25570       -7.71930
H         -1.84280       13.28380       -4.24180
H         -4.52900       15.32600       -6.22590
H         -2.12480       15.84300       -4.59990
H         -8.17720       17.16880       -4.93800
H         -8.27050       19.52510       -5.36430
H         -6.26050       20.93650       -5.42020
H         -5.05390       22.11040       -4.13290
H         -1.30760       21.32600       -5.90930
H         -2.40840       26.14070       -5.12780
H         -6.31410       26.89050       -3.70730
H         -2.99170       28.59310       -5.00650
H         -5.38360       29.20660       -3.39930
H         -2.48980       31.07640       -8.55960
H         -1.60310       33.23560       -8.02080
H         -2.05910       34.35080       -5.87870
H         -3.53050       35.67100       -4.99760
H         -3.34330       34.01160       -1.11720
H         -2.99960       38.95820       -1.38650
H         -2.92340       40.60110       -5.27170
H         -2.46730       41.46140       -1.45190
H         -3.52590       42.74300       -3.88770
H         -2.98710       46.55500       -0.06320
H          1.31610       45.79030       -3.85180
H          1.04310       47.57770       -2.29940
H         -0.87190       47.69580       -0.76360
