126
630_389_01010101.out	Energy:   -5610.4206904
C         -9.43950        1.08140      -13.66340
C        -10.20090        2.07060      -14.18670
C        -10.51830        3.02180      -13.13560
C         -9.86410        2.50110      -11.91840
C         -9.22530        1.34380      -12.25350
C         -9.88990        3.09550      -10.64250
N         -9.90100        3.57160       -9.59180
C        -11.27040        4.16060      -13.23750
C        -11.59640        5.08580      -12.18910
C        -12.38440        6.09140      -12.69900
C        -12.58050        5.82750      -14.12430
C        -11.92690        4.68540      -14.45850
C        -11.88160        4.10890      -15.74410
N        -11.86350        3.66320      -16.80710
C        -12.95700        7.21170      -12.02380
C        -12.80430        7.45820      -10.69560
C        -13.39900        8.55420      -10.00500
S        -13.14470        8.73810       -8.29830
C        -14.15200       10.14240       -8.20990
C        -14.65080       10.43650       -9.48020
C        -14.22100        9.55230      -10.48540
N        -15.61590       11.45340       -9.81010
O        -16.31510       11.88960       -8.93030
O        -15.68590       11.78020      -10.96820
C        -14.30390       10.78020       -6.94150
C        -14.04200       10.16610       -5.73390
C        -14.31860       11.07710       -4.66870
C        -14.73240       12.33850       -5.31510
C        -14.71610       12.15350       -6.66310
C        -15.05220       13.53700       -4.64560
N        -15.30370       14.52290       -4.10350
C        -14.24780       10.82540       -3.31550
C        -14.64020       11.68330       -2.24550
C        -14.46040       11.02350       -1.04560
C        -13.90740        9.70270       -1.34030
C        -13.77900        9.56850       -2.68560
C        -13.26870        8.44060       -3.35920
N        -12.84450        7.50850       -3.88900
C        -14.76530       11.45530        0.27590
C        -15.30940       12.66410        0.58890
C        -15.65720       13.05800        1.91190
S        -16.41550       14.59450        2.20110
C        -16.55270       14.30200        3.89950
C        -16.00020       13.05730        4.20790
C        -15.50440       12.36090        3.09350
N        -15.79420       12.50990        5.52730
O        -15.85880       13.25070        6.47460
O        -15.52540       11.33720        5.58900
C        -17.23850       15.25590        4.71150
C        -17.93220       15.04980        5.88290
C        -18.49660       16.29010        6.31770
C        -18.08550       17.30000        5.32200
C        -17.36770       16.66550        4.35530
C        -18.41380       18.66990        5.35350
N        -18.67820       19.79220        5.37160
C        -19.28590       16.49710        7.42800
C        -19.75360       17.73890        7.95370
C        -20.50050       17.49640        9.08930
C        -20.54590       16.04840        9.29500
C        -19.81900       15.44170        8.32330
C        -19.66680       14.04950        8.15730
N        -19.58350       12.90670        8.03240
C        -21.13790       18.41370        9.97080
C        -21.03370       19.76960        9.89580
C        -21.66380       20.65730       10.81400
S        -21.31090       22.35800       10.78410
C        -22.35130       22.68390       12.12710
C        -22.96150       21.49950       12.54550
C        -22.56790       20.36610       11.81570
N        -24.00380       21.36790       13.53550
O        -24.61230       22.35340       13.86480
O        -24.22640       20.25520       13.93940
C        -22.38560       24.00710       12.66260
C        -22.70300       24.42030       13.93690
C        -22.53590       25.84000       14.02540
C        -22.09190       26.28470       12.68870
C        -21.98280       25.18420       11.89700
C        -21.80320       27.61110       12.30910
N        -21.55930       28.68970       11.98330
C        -22.73960       26.63160       15.13220
C        -22.67290       28.05740       15.21730
C        -22.98270       28.45210       16.50040
C        -23.23750       27.24640       17.29150
C        -23.09740       26.15900       16.49140
C        -23.20920       24.81630       16.90920
N        -23.27700       23.73220       17.29440
C        -23.04490       29.79660       16.97170
C        -23.36650       30.14870       18.24290
C        -23.43170       31.49710       18.71680
S        -23.87880       31.79780       20.37350
C        -23.73960       33.48060       20.16880
C        -23.36530       33.79750       18.88680
C        -23.18660       32.67430       18.04910
N        -23.17170       35.15200       18.44040
O        -23.35490       36.02890       19.24620
O        -22.83980       35.31690       17.29540
H         -9.04110        0.22390      -14.18440
H        -10.53310        2.16090      -15.20770
H         -8.65040        0.71430      -11.59130
H        -11.26780        4.98460      -11.16800
H        -13.15940        6.45620      -14.78390
H        -13.55560        7.88500      -12.63050
H        -12.20580        6.78580      -10.08910
H        -14.53890        9.65380      -11.51280
H        -13.73100        9.14190       -5.60870
H        -14.93840       12.89840       -7.40860
H        -15.03810       12.67650       -2.37450
H        -13.65160        8.96980       -0.59020
H        -14.55660       10.74390        1.06990
H        -15.51960       13.38210       -0.19750
H        -15.04240       11.38880        3.18390
H        -18.04310       14.11380        6.40200
H        -16.92980       17.11080        3.47510
H        -19.53040       18.70440        7.53020
H        -21.07850       15.56660       10.10080
H        -21.72680       17.97160       10.76960
H        -20.42100       20.22520        9.12440
H        -22.96800       19.38420       12.02210
H        -23.02040       23.79370       14.75230
H        -21.67550       25.15820       10.86270
H        -22.44070       28.71400       14.39470
H        -23.48740       27.23430       18.34120
H        -22.81730       30.56780       16.24130
H        -23.59700       29.38220       18.97590
H        -23.92950       34.17640       20.96920
H        -22.89190       32.76180       17.01420
