178
630_504_01010101.out	Energy:   -4434.9946267
C         30.61490       12.80420       -6.70410
C         30.01120       13.72420       -7.49290
C         28.62980       13.32560       -7.70420
C         28.46470       12.06300       -6.95890
C         29.65950       11.76940       -6.36840
C         27.28840       11.29570       -6.86510
N         26.33830       10.64800       -6.77310
C         27.67380       13.98020       -8.42900
C         26.30180       13.59610       -8.62620
C         25.66710       14.54430       -9.38390
C         26.64280       15.58460       -9.71440
C         27.83910       15.26130       -9.15970
C         29.02310       16.01730       -9.26710
N         29.97510       16.65870       -9.37720
C         24.28310       14.52970       -9.77370
C         23.65920       15.51310      -10.44020
C         22.19560       15.48270      -10.76260
C         21.46450       16.40840       -9.82100
C         20.51280       17.28130      -10.15340
O         20.02720       18.07920       -9.14950
C         18.66710       18.46450       -9.08860
C         17.71020       17.27150       -8.95210
C         17.24240       16.66500      -10.29570
O         18.24900       15.84160      -10.85500
C         19.00340       16.33130      -11.93740
C         19.95710       17.47960      -11.54290
C         16.02950       15.80630      -10.05750
C         15.92940       14.46830      -10.27370
C         14.62450       14.01950       -9.84250
C         13.92710       15.22740       -9.35530
C         14.77560       16.28550       -9.50150
C         12.60700       15.28890       -8.87100
N         11.52300       15.36320       -8.48340
C         14.13700       12.74090       -9.84580
C         12.90670       12.26890       -9.27410
C         12.81370       10.91360       -9.45630
C         13.99450       10.47630      -10.20080
C         14.80000       11.54650      -10.42460
C         16.02290       11.52820      -11.12390
N         17.01550       11.48120      -11.70880
C         11.78930       10.00870       -9.00260
C         10.86040       10.32590       -8.08610
C          9.82060        9.36920       -7.58180
C          8.50940       10.06600       -7.31810
C          7.74820       10.64260       -8.25300
O          6.63750       11.30300       -7.81070
C          5.55960       11.69110       -8.63720
C          4.68410       10.51000       -9.07860
C          5.19980        9.76480      -10.33000
O          6.28920        8.92760       -9.99010
C          7.57900        9.31650      -10.39470
C          8.06250       10.62090       -9.72790
C          4.09570        8.90740      -10.88500
C          4.04630        7.54970      -10.91140
C          2.79390        7.13780      -11.50640
C          2.07780        8.38780      -11.83600
C          2.87000        9.43280      -11.46050
C          0.80780        8.49600      -12.43310
N         -0.23210        8.61650      -12.91790
C          2.35120        5.86280      -11.73230
C          1.10300        5.46000      -12.31810
C          1.04820        4.09150      -12.37490
C          2.29350        3.56810      -11.81270
C          3.07810        4.60630      -11.42460
C          4.35790        4.49950      -10.84570
N          5.40450        4.37340      -10.37820
C          0.00330        3.24630      -12.88950
C         -1.16220        3.70050      -13.37650
C         -2.25320        2.82880      -13.92440
C         -1.78900        1.45180      -14.30580
C         -2.32780        0.29790      -13.90850
O         -1.71200       -0.85190      -14.33150
C         -2.42970       -2.03960      -14.60600
C         -3.42230       -1.88820      -15.76790
C         -4.82450       -1.38370      -15.35460
O         -4.80790        0.00960      -15.10560
C         -4.83990        0.45550      -13.77140
C         -3.53090        0.16530      -13.00570
C         -5.78830       -1.63740      -16.48160
C         -6.37510       -0.70040      -17.27140
C         -7.20560       -1.36540      -18.25100
C         -7.06210       -2.81110      -17.98020
C         -6.21270       -2.95470      -16.92240
C         -7.68430       -3.85920      -18.68380
N         -8.17620       -4.73660      -19.24870
C         -7.96780       -0.78770      -19.22940
C         -8.78610       -1.44210      -20.21260
C         -9.37410       -0.50010      -21.01620
C         -8.94100        0.81960      -20.55490
C         -8.10680        0.66520      -19.49460
C         -7.49170        1.71210      -18.77930
N         -7.00650        2.59560      -18.21940
C        -10.25210       -0.75840      -22.12470
C        -10.81860        0.18680      -22.89300
C        -11.69320       -0.11330      -24.07300
C        -11.13280        0.55950      -25.30430
C        -10.02800        0.17580      -25.95250
O         -9.62300        0.96860      -26.98740
C         -8.73030        0.54720      -28.00180
C         -9.34370       -0.49010      -28.95230
C         -9.25160       -1.94780      -28.47890
O        -10.21940       -2.24470      -27.49070
C         -9.79640       -2.34020      -26.15370
C         -9.20450       -1.03310      -25.58720
H         31.63950       12.81320       -6.36360
H         30.45710       14.61310       -7.90750
H         29.87370       10.91160       -5.74900
H         25.85320       12.70310       -8.22300
H         26.43500       16.46080      -10.30960
H         23.72430       13.64430       -9.48060
H         24.18430       16.41940      -10.72640
H         21.80680       14.46440      -10.64690
H         22.04190       15.78780      -11.80250
H         21.76680       16.34840       -8.78110
H         18.38340       19.09170       -9.94820
H         18.59570       19.08150       -8.18530
H         16.82900       17.60410       -8.39790
H         18.19950       16.48490       -8.37340
H         16.97750       17.48050      -10.99310
H         18.34620       16.66460      -12.75680
H         19.58920       15.47430      -12.28800
H         19.43360       18.43570      -11.59620
H         20.77200       17.51270      -12.27100
H         16.70090       13.82970      -10.67030
H         14.55990       17.31520       -9.25800
H         12.19350       12.89810       -8.76770
H         14.17890        9.45620      -10.50280
H         11.82000        9.00340       -9.41490
H         10.84080       11.31580       -7.63970
H         10.17850        8.94230       -6.63800
H          9.70340        8.53650       -8.28470
H          8.19700       10.14110       -6.28310
H          5.89850       12.27170       -9.50830
H          4.95510       12.35470       -8.00710
H          3.68080       10.88980       -9.28740
H          4.61590        9.79220       -8.25820
H          5.50010       10.50100      -11.09690
H          7.63100        9.42980      -11.49000
H          8.23490        8.49000      -10.09920
H          7.61290       11.48160      -10.22570
H          9.14430       10.68930       -9.86940
H          4.81040        6.87980      -10.55420
H          2.64130       10.48200      -11.57400
H          0.34460        6.14670      -12.65550
H          2.52840        2.51740      -11.73160
H          0.20060        2.17790      -12.87030
H         -1.37820        4.76500      -13.38420
H         -2.67360        3.32620      -14.80770
H         -3.06060        2.78710      -13.18330
H         -0.93530        1.41320      -14.97440
H         -2.93960       -2.42460      -13.70940
H         -1.66020       -2.76640      -14.89180
H         -3.53690       -2.86310      -16.24870
H         -3.01040       -1.19160      -16.50150
H         -5.16170       -1.93330      -14.45740
H         -5.69030        0.01270      -13.22820
H         -4.99430        1.53840      -13.83500
H         -3.56270       -0.83840      -12.57850
H         -3.45550        0.87060      -12.17420
H         -6.25350        0.36640      -17.18690
H         -5.90470       -3.88590      -16.47070
H         -8.90650       -2.50980      -20.29640
H         -9.24240        1.75840      -20.99400
H        -10.45880       -1.80710      -22.32470
H        -10.63050        1.24080      -22.71290
H        -12.69510        0.28610      -23.88520
H        -11.78760       -1.19520      -24.21050
H        -11.63940        1.45730      -25.63890
H         -7.78130        0.18010      -27.58260
H         -8.51330        1.45980      -28.56990
H         -8.82750       -0.41450      -29.91340
H        -10.39610       -0.24160      -29.10900
H         -8.23620       -2.17990      -28.12310
H         -9.46840       -2.59990      -29.33630
H         -9.05220       -3.14570      -26.03480
H        -10.69310       -2.61190      -25.58540
H         -8.17940       -0.91010      -25.94050
H         -9.16330       -1.12970      -24.49930
