134
630_67_01010101.out	Energy:   -5467.0912260
C          4.39050       26.17750        5.41170
C          3.89490       25.02970        5.90830
C          2.98000       24.45990        4.91060
C          2.99820       25.40680        3.78020
C          3.83580       26.40880        4.09890
C          2.30020       25.34080        2.55260
N          1.73640       25.29370        1.53900
C          2.28800       23.30750        5.04150
C          1.37550       22.74190        4.04640
C          0.86040       21.59920        4.53770
C          1.42400       21.36850        5.85560
C          2.26750       22.36530        6.17040
C          2.97670       22.41950        7.39100
N          3.55360       22.45000        8.39720
C         -0.09030       20.79140        3.82830
C         -1.29730       20.49710        4.32920
C         -2.22440       19.69110        3.62030
S         -3.37690       18.74810        4.51300
C         -2.45100       19.47870        2.28820
N         -1.90450       19.90570        1.13510
C         -2.58120       19.14640        0.06940
O         -3.64630       18.34910        0.68040
C         -3.47540       18.58760        1.99940
C         -4.13590       18.08550        3.08820
C         -5.21270       17.16640        3.17280
C         -6.11550       17.18660        4.17590
C         -7.08700       16.11490        3.95580
C         -6.67520       15.46330        2.70410
C         -5.57980       16.09950        2.25570
C         -7.26970       14.36770        2.03340
N         -7.74970       13.47050        1.48030
C         -8.13230       15.84340        4.76400
C         -9.12400       14.79290        4.54740
C        -10.05450       14.87990        5.51670
C         -9.66900       15.94030        6.43140
C         -8.53850       16.52090        6.00270
C         -7.92080       17.58390        6.69340
N         -7.42920       18.46080        7.27760
C        -11.18490       14.00270        5.61180
C        -12.33760       14.38110        6.18090
C        -13.44650       13.50610        6.22640
S        -15.05230       14.15830        6.21090
C        -13.53750       12.14470        6.27380
N        -12.66560       11.12160        6.34450
C        -13.49270        9.91930        6.56430
O        -14.89650       10.30860        6.45610
C        -14.82820       11.65030        6.32440
C        -15.81970       12.59430        6.26780
C        -17.23140       12.48350        6.26920
C        -17.87130       11.29440        6.34260
C        -19.31270       11.53660        6.28490
C        -19.44360       12.92010        6.15960
C        -18.24560       13.51390        6.15310
C        -20.75280       13.66480        5.95500
N        -21.83900       14.28250        5.78530
C        -20.37960       10.75600        6.44440
C        -21.81390       10.98070        6.31130
C        -22.45170        9.89270        6.78510
C        -21.46140        8.93410        7.21080
C        -20.26030        9.47050        6.97870
C        -18.95670        8.71160        7.16600
N        -17.87520        8.08210        7.32130
C        -23.87010        9.75340        6.80700
C        -24.52050        8.76720        6.17680
C        -25.93590        8.68550        6.21590
S        -26.74480        7.39220        5.38570
C        -26.88880        9.46070        6.81720
N        -26.89300       10.58440        7.56120
C        -28.31020       10.95280        7.71260
O        -29.11970        9.88220        7.13940
C        -28.19520        9.05850        6.59870
C        -28.34120        7.91920        5.85080
C        -29.49200        7.19850        5.43820
C        -30.74250        7.58830        5.76600
C        -31.70030        6.64150        5.19270
C        -30.88500        5.63850        4.49400
C        -29.59600        5.98240        4.64590
C        -31.29880        4.48970        3.78390
N        -31.62620        3.54170        3.20100
C        -33.04220        6.72760        5.30660
C        -34.00720        5.80460        4.71020
C        -35.24980        6.20510        5.04360
C        -35.13870        7.41520        5.84090
C        -33.84650        7.73190        6.01760
C        -33.42980        8.84040        6.78830
N        -33.11230        9.75220        7.43300
C        -36.44250        5.53910        4.59520
C        -37.59520        5.55350        5.28120
C        -38.73900        4.86150        4.80690
S        -40.33710        5.43730        5.21470
C        -38.87830        3.74090        4.03190
N        -38.04340        2.84640        3.46730
C        -38.91820        1.78310        2.93190
O        -40.31230        2.20080        3.10720
C        -40.18700        3.35100        3.79750
C        -41.12780        4.16610        4.34780
H          5.06190       26.79570        5.89360
H          4.11850       24.62110        6.82910
H          4.04970       27.21950        3.49720
H          1.16270       23.15050        3.12290
H          1.20890       20.56000        6.45990
H          0.16520       20.42400        2.89840
H         -1.55970       20.86680        5.25630
H         -1.19940       20.58410        1.02630
H         -1.87960       18.50130       -0.41690
H         -2.99170       19.81580       -0.65740
H         -6.11990       17.84860        4.96760
H         -5.07330       15.86510        1.38760
H         -9.11320       14.10130        3.78150
H        -10.18700       16.20690        7.28320
H        -11.10810       13.04740        5.22900
H        -12.41670       15.32460        6.59170
H        -11.68520       11.16590        6.26630
H        -13.30100        9.52020        7.53840
H        -13.25860        9.17010        5.83710
H        -17.41840       10.37070        6.42540
H        -18.07270       14.52860        6.07850
H        -22.26200       11.82500        5.92230
H        -21.64680        8.00480        7.61960
H        -24.42310       10.44690        7.33460
H        -23.98430        8.05640        5.65510
H        -26.11190       11.05930        7.92670
H        -28.50380       11.87000        7.19680
H        -28.55040       11.08670        8.74670
H        -30.98380        8.41880        6.32910
H        -28.79530        5.46000        4.25720
H        -33.77510        4.98310        4.13030
H        -35.93620        7.95200        6.21600
H        -36.41020        5.02460        3.70120
H        -37.65070        6.07670        6.16900
H        -37.06100        2.89180        3.42150
H        -38.74460        0.87050        3.46290
H        -38.70960        1.62210        1.89490
H        -42.14910        4.04530        4.26170
