118
630_180_01010101.out	Energy:   -3485.6792414
C         12.98010        1.21760        2.06580
C         13.05700        1.32880        0.72850
C         11.83440        0.79860        0.13990
C         11.01850        0.35520        1.28280
C         11.71850        0.60970        2.40860
C          9.72980       -0.20650        1.28510
N          8.66350       -0.67710        1.30910
C         11.58360        0.73680       -1.18460
C         10.40430        0.12780       -1.79650
C         10.53340        0.20700       -3.13550
C         11.74260        0.94150       -3.44190
C         12.39680        1.23150       -2.30810
C         13.63610        1.90610       -2.31190
N         14.65850        2.45410       -2.35560
C          9.57550       -0.25250       -4.09710
C          9.06200       -1.48800       -4.12790
C          8.05310       -1.87900       -5.04220
N          7.75600       -3.22380       -5.10440
C          6.75950       -3.40690       -6.01750
N          6.40350       -2.27500       -6.57080
C          7.17400       -1.31450       -5.95610
C          6.96720        0.03820       -6.31510
C          7.04630        1.12970       -5.52830
C          6.75490        2.30090       -6.33810
C          6.37260        1.79890       -7.66230
C          6.52530        0.46390       -7.63800
C          5.96860        2.51780       -8.80940
N          5.63630        3.12380       -9.74030
C          6.82260        3.57210       -5.89910
C          6.30320        4.69710       -6.64750
C          6.41330        5.79220       -5.88970
C          7.06130        5.43370       -4.63660
C          7.31580        4.11520       -4.62870
C          8.01570        3.46200       -3.58800
N          8.60430        2.95100       -2.72710
C          5.78420        7.02360       -6.25070
C          5.84470        7.63600       -7.43840
C          5.29040        8.92540       -7.62050
N          4.67500        9.19640       -8.82020
C          4.33440       10.51860       -8.83070
N          4.68190       11.11630       -7.71540
C          5.25650       10.13760       -6.94230
C          5.83340       10.47790       -5.68670
C          6.50320       11.61650       -5.37860
C          7.07950       11.45260       -4.03580
C          6.66580       10.19030       -3.60320
C          5.85790        9.64470       -4.50360
C          6.97850        9.56510       -2.25350
N          7.23800        9.04640       -1.13380
C          7.77450       12.23940       -3.21710
C          8.28200       12.04620       -1.86240
C          8.77970       13.20950       -1.40990
C          8.59530       14.18920       -2.45780
C          8.07240       13.56430       -3.52130
C          7.85940       14.25380       -4.85900
N          7.68270       14.82580       -5.96880
C          9.32830       13.41940       -0.10030
C         10.00580       12.49550        0.60370
C         10.58750       12.76220        1.86920
N         10.45880       14.00700        2.44460
C         11.12440       14.00960        3.63210
N         11.64380       12.83600        3.88840
C         11.33120       12.05100        2.79990
C         11.79880       10.70680        2.77920
C         12.12470        9.93950        1.71650
C         12.66700        8.66220        2.20470
C         12.60040        8.74010        3.66930
C         12.08940        9.94120        3.98730
C         12.92960        7.75240        4.62470
N         13.19970        6.93560        5.40330
C         13.16120        7.67030        1.42520
C         13.83940        6.46070        1.89510
C         14.27040        5.76930        0.81900
C         13.82870        6.46220       -0.37840
C         13.16440        7.57950       -0.04030
C         12.50100        8.38530       -0.97720
N         11.93370        9.05080       -1.75600
C         14.91240        4.48480        0.85740
C         15.99830        4.19400        1.58560
C         16.52990        2.88600        1.61650
N         17.23430        2.49150        2.72700
C         17.58780        1.18340        2.55910
N         17.17810        0.71800        1.40360
C         16.54870        1.77510        0.79680
H         13.70460        1.51780        2.73650
H         13.85250        1.72520        0.20420
H         11.39950        0.40110        3.36760
H          9.60880       -0.29120       -1.28990
H         12.05420        1.20270       -4.39040
H          9.25920        0.41640       -4.81650
H          9.41670       -2.18650       -3.45620
H          8.19050       -3.93320       -4.57800
H          6.33930       -4.32190       -6.24370
H          7.27490        1.13310       -4.52190
H          6.35500       -0.16660       -8.43720
H          5.91450        4.65980       -7.60270
H          7.28950        6.09010       -3.87370
H          5.22490        7.48890       -5.51870
H          6.30180        7.16180       -8.23280
H          4.50910        8.55040       -9.54440
H          3.86220       10.98950       -9.61830
H          6.59260       12.45020       -5.98020
H          5.33100        8.76600       -4.37990
H          8.26180       11.15860       -1.33640
H          8.82610       15.19330       -2.39700
H          9.19300       14.34650        0.33240
H         10.10700       11.54910        0.20490
H          9.96690       14.76860        2.06080
H         11.20860       14.83140        4.25060
H         12.01190       10.20530        0.72580
H         11.92540       10.27530        4.94990
H         13.96620        6.18390        2.88120
H         13.99980        6.14360       -1.34490
H         14.50710        3.73050        0.28150
H         16.45490        4.93940        2.13410
H         17.44700        3.05300        3.50710
H         18.11210        0.63000        3.25470
H         16.14150        1.74410       -0.15100
