162
630_226_01010101.out	Energy:   -4045.3617310
C          2.62580        0.87750       -3.18470
C          1.74780        1.81270       -3.58830
C          2.14360        2.24600       -4.93250
C          3.31560        1.42710       -5.28700
C          3.58660        0.63320       -4.23630
C          4.04890        1.39420       -6.49580
N          4.65530        1.36520       -7.48740
C          1.57100        3.24220       -5.63460
C          2.08120        3.77590       -6.89380
C          1.36580        4.86800       -7.21290
C          0.29080        5.01060       -6.24310
C          0.40170        4.06520       -5.29610
C         -0.49870        3.94070       -4.21430
N         -1.24300        3.86350       -3.32720
C          1.67140        5.70000       -8.34370
C          1.42400        7.01570       -8.31550
C          1.75460        7.86250       -9.39320
N          1.01800        9.00890       -9.69360
C         -0.27500        9.41030       -9.12740
C         -0.56830        9.27240       -7.63590
C          1.62210        9.60670      -10.81420
C          2.70260        8.83490      -11.18960
C          2.79480        7.76130      -10.29800
C          1.14150       10.76740      -11.47190
C          0.79590       11.86300      -10.79440
C          0.27510       13.06830      -11.35820
C          0.35830       14.21930      -10.66650
C         -0.47570       15.21020      -11.33310
C         -0.95270       14.57490      -12.56270
C         -0.53960       13.29560      -12.54130
C         -1.63550       15.16880      -13.64730
N         -2.18300       15.63820      -14.55640
C         -0.86940       16.34750      -10.73030
C         -2.08180       17.09950      -11.07630
C         -2.39780       17.86060      -10.01180
C         -1.30990       17.74700       -9.02960
C         -0.38110       16.88780       -9.46020
C          0.83620       16.62930       -8.77880
N          1.81930       16.40920       -8.21270
C         -3.61790       18.55940       -9.71250
C         -4.70920       18.96850      -10.39430
C         -5.69730       19.63740       -9.59460
N         -6.55580       20.66090      -10.00960
C         -6.76660       21.23640      -11.34060
C         -7.95970       20.71080      -12.14670
C         -7.08380       21.23160       -8.84840
C         -6.71980       20.49230       -7.75390
C         -5.90710       19.46770       -8.22460
C         -7.85690       22.40080       -8.87120
C         -9.18420       22.27860       -8.97780
C        -10.07520       23.39240       -8.91750
C         -9.83070       24.49830       -8.17600
C        -10.95990       25.39560       -8.32250
C        -11.93180       24.68990       -9.17110
C        -11.38670       23.51140       -9.50920
C        -13.20900       25.10680       -9.60520
N        -14.26180       25.44280       -9.96400
C        -11.02420       26.61750       -7.76350
C        -12.16440       27.49760       -7.86360
C        -11.85820       28.60570       -7.14840
C        -10.53830       28.50150       -6.58930
C        -10.03230       27.31090       -6.92110
C         -8.77910       26.89310       -6.47190
N         -7.72200       26.54600       -6.09310
C        -12.81760       29.61330       -6.91740
C        -12.58870       30.91940       -7.01590
C        -13.63460       31.86580       -7.02450
N        -14.97260       31.58520       -7.30910
C        -15.58090       30.33150       -7.77390
C        -16.40090       29.60930       -6.69860
C        -15.68830       32.76040       -7.14360
C        -14.79440       33.78370       -6.90480
C        -13.51320       33.23120       -6.85110
C        -17.09320       32.77470       -7.23480
C        -17.75450       33.91100       -7.02210
C        -19.17170       33.96170       -7.11130
C        -20.00010       33.27350       -6.30290
C        -21.34380       33.42420       -6.84250
C        -21.23030       34.37150       -7.96050
C        -19.93400       34.65800       -8.11890
C        -22.25070       34.96500       -8.73380
N        -23.08060       35.46390       -9.38180
C        -22.39950       32.68290       -6.45550
C        -23.64910       32.60090       -7.19360
C        -24.39510       31.62390       -6.64750
C        -23.68180       31.08810       -5.49590
C        -22.51110       31.72700       -5.34640
C        -21.65240       31.56440       -4.22220
N        -20.97190       31.43940       -3.29990
C        -25.70770       31.31030       -7.13470
C        -26.08820       30.11430       -7.60460
C        -27.40190       29.97770       -8.12010
N        -28.46550       29.47280       -7.35900
C        -28.27990       28.75150       -6.09710
C        -29.28390       28.86760       -4.95050
C        -29.61630       29.53470       -8.14670
C        -29.24530       29.99150       -9.40040
C        -27.87090       30.27330       -9.38290
C        -30.89990       29.19670       -7.65540
C        -31.85190       28.68650       -8.44460
H          2.61520        0.40710       -2.26620
H          0.94050        2.16270       -3.04910
H          4.36180       -0.04640       -4.18820
H          2.85920        3.38160       -7.44540
H         -0.44730        5.73110       -6.27780
H          2.08720        5.27810       -9.18870
H          0.97730        7.42260       -7.47880
H         -1.01950        8.83430       -9.63620
H         -0.26700       10.47150       -9.26370
H         -0.60180        8.23570       -7.37330
H         -1.51120        9.72720       -7.41430
H          0.20250        9.75780       -7.07450
H          3.33150        9.01760      -11.98720
H          3.51450        7.02190      -10.31300
H          1.05710       10.76430      -12.50050
H          0.91550       11.83790       -9.76970
H          0.91610       14.37340       -9.81210
H         -0.76580       12.58460      -13.25430
H         -2.59630       17.05330      -11.96980
H         -1.26920       18.25850       -8.13420
H         -3.67460       18.81560       -8.71440
H         -4.82410       18.81320      -11.40800
H         -5.88290       21.05210      -11.91520
H         -6.98420       22.26920      -11.16490
H         -7.81430       19.67310      -12.36350
H         -8.04060       21.25860      -13.06230
H         -8.85700       20.83380      -11.57690
H         -6.99460       20.66250       -6.77380
H         -5.51960       18.70190       -7.65160
H         -7.41360       23.33060       -8.80740
H         -9.58280       21.33580       -9.10960
H         -8.98800       24.67220       -7.60630
H        -11.83710       22.79750      -10.10280
H        -13.04020       27.31750       -8.37880
H        -10.06230       29.22410       -6.02690
H        -13.76900       29.31430       -6.65190
H        -11.61430       31.25140       -7.08830
H        -14.79940       29.67700       -8.09920
H        -16.25590       30.58540       -8.56430
H        -15.76110       29.33630       -5.88560
H        -16.84110       28.72850       -7.11730
H        -17.17280       30.25910       -6.34240
H        -15.03080       34.78130       -6.78670
H        -12.63280       33.75000       -6.70750
H        -17.60740       31.91000       -7.46510
H        -17.22930       34.76810       -6.78880
H        -19.73310       32.74040       -5.46050
H        -19.54190       35.27750       -8.84520
H        -23.91730       33.19020       -7.99720
H        -24.02560       30.33010       -4.88580
H        -26.41300       32.06360       -7.12230
H        -25.44000       29.31140       -7.59150
H        -27.33670       29.06950       -5.70450
H        -28.39540       27.73140       -6.39860
H        -29.26230       29.86240       -4.55700
H        -29.02580       28.17300       -4.17870
H        -30.26650       28.64880       -5.31330
H        -29.87390       30.10540      -10.21090
H        -27.31260       30.63590      -10.17150
H        -31.10820       29.34890       -6.65620
H        -31.66130       28.52750       -9.44630
H        -32.77680       28.45170       -8.05170
