154
630_778_01010101.out	Energy:   -7137.1592744
C         18.96910       23.01260        9.03870
C         18.12680       22.60580        8.05150
C         17.13330       21.72570        8.62160
C         17.45220       21.63440       10.05280
C         18.55620       22.41330       10.28390
C         16.75550       20.88720       11.01840
N         16.19820       20.27790       11.82530
C         16.09300       21.09660        7.96580
C         15.11310       20.22520        8.53630
C         14.24730       19.80420        7.54450
C         14.66690       20.41120        6.29740
C         15.76850       21.18590        6.53510
C         16.45610       21.93360        5.55940
N         16.98820       22.53930        4.73440
C         13.13370       18.92730        7.73810
C         12.29010       18.51480        6.77060
C         11.15870       17.59050        7.04040
S          9.54340       18.53470        7.02810
C          9.05400       17.84060        5.46750
C          9.91950       16.75010        5.08350
N          9.56170       16.06580        4.01440
N         10.36910       15.09520        3.57340
C         11.02310       16.52200        5.97650
S         12.10520       15.28930        5.99850
C          7.94490       18.29660        4.79500
C          7.11920       19.33870        5.21330
C          6.01640       19.81950        4.51290
C          5.16700       20.86460        4.91900
C          4.17790       21.06620        3.95800
C          4.43610       20.07640        2.87610
C          5.52720       19.34490        3.21980
C          3.69860       19.91930        1.68640
N          3.12490       19.76600        0.69700
C          3.13430       22.00100        3.96870
C          2.12690       22.17830        2.99110
C          1.29240       23.22300        3.38370
C          1.77690       23.72470        4.64260
C          2.88280       22.99660        5.00900
C          3.63470       23.18980        6.18200
N          4.23880       23.36890        7.14940
C          0.15830       23.74740        2.69350
C         -0.34440       23.26040        1.53780
C         -1.51330       23.87040        0.86380
S         -0.93820       25.02290       -0.51020
C         -1.89320       24.18210       -1.74740
C         -2.61570       23.05970       -1.19570
N         -3.39630       22.40170       -2.03230
N         -4.03300       21.31250       -1.59890
C         -2.44770       22.87030        0.21860
S         -3.16540       21.77130        1.20390
C         -1.95160       24.64570       -3.04010
C         -1.23960       25.73370       -3.54450
C         -1.34100       26.21890       -4.84440
C         -0.64360       27.31750       -5.38170
C         -1.04420       27.52820       -6.69890
C         -2.05580       26.47920       -7.00380
C         -2.21430       25.70660       -5.89910
C         -2.73350       26.29050       -8.22430
N         -3.31180       26.09990       -9.20440
C         -0.61750       28.52270       -7.59040
C         -1.11470       28.78940       -8.88670
C         -0.43410       29.88360       -9.42040
C          0.53230       30.31840       -8.44650
C          0.42750       29.51230       -7.33830
C          1.20890       29.62500       -6.17370
N          1.85980       29.73830       -5.22700
C         -0.70210       30.46960      -10.69140
C         -0.04780       31.52490      -11.22730
C         -0.42790       32.10410      -12.53610
S         -1.44600       33.66960      -12.26500
C         -0.13940       34.71960      -12.85140
C          0.92100       33.95270      -13.46180
N          1.86590       34.64290      -14.07050
N          2.91430       33.98800      -14.58030
C          0.75610       32.52650      -13.37520
S          1.65020       31.33810      -14.06790
C         -0.21230       36.08820      -12.74500
C         -1.23980       36.79880      -12.12580
C         -1.28190       38.18300      -11.98400
C         -2.26760       38.92020      -11.30260
C         -1.95290       40.27760      -11.34600
C         -0.69320       40.39080      -12.13090
C         -0.30450       39.14190      -12.49510
C         -0.00610       41.57630      -12.45760
N          0.58400       42.52270      -12.75340
C         -2.63520       41.34730      -10.75180
C         -2.28550       42.71860      -10.77970
C         -3.20520       43.43930      -10.02160
C         -4.17280       42.50960       -9.50150
C         -3.84470       41.24800       -9.93750
C         -4.56200       40.07530       -9.63970
N         -5.17210       39.12820       -9.38690
C         -3.16510       44.85070       -9.80660
C         -4.00000       45.54300       -9.00390
C         -3.88790       47.01250       -8.81480
S         -5.29570       47.87910       -9.67500
C         -6.05090       48.36950       -8.16220
C         -5.22010       48.08950       -7.03130
N         -5.61640       48.52600       -5.84630
N         -4.89580       48.18980       -4.75830
C         -3.98070       47.42290       -7.36030
S         -2.68500       47.09240       -6.41330
C         -7.31090       49.02060       -8.23670
C         -8.04000       49.49170       -7.20570
H         19.81550       23.67500        8.93520
H         18.17300       22.88110        7.01080
H         19.04500       22.56230       11.23480
H         15.06330       19.94400        9.57560
H         14.18530       20.27030        5.34160
H         12.97850       18.57460        8.75570
H         12.40220       18.83040        5.73930
H         11.22850       17.14830        8.03640
H         10.02840       19.71590        6.63340
H          9.87070       14.45760        2.96990
H         10.99510       14.70010        4.27920
H          7.73180       17.78140        3.86230
H          7.35180       19.81450        6.16370
H          5.27410       21.41570        5.83880
H          5.96930       18.54780        2.64160
H          2.02750       21.59780        2.08870
H          1.33220       24.53740        5.19690
H         -0.33180       24.60310        3.15460
H          0.09760       22.40700        1.03610
H         -2.06820       24.52690        1.53940
H          0.26020       24.45780       -0.68820
H         -4.81590       21.08510       -2.19390
H         -4.15290       21.25170       -0.58360
H         -2.61620       24.08910       -3.69560
H         -0.56400       26.25110       -2.86700
H          0.07630       27.90790       -4.83910
H         -2.87500       24.85840       -5.80310
H         -1.90470       28.24810       -9.38160
H          1.21980       31.14190       -8.56750
H         -1.51020       30.01640      -11.26300
H          0.76990       32.01520      -10.71140
H         -1.08730       31.43830      -13.09700
H         -1.26440       33.75900      -10.94440
H          3.38950       34.54970      -15.27150
H          2.74470       33.00140      -14.79300
H          0.63030       36.62530      -13.17200
H         -2.06460       36.22840      -11.70410
H         -3.12230       38.48660      -10.80980
H          0.57170       38.88960      -13.07290
H         -1.43790       43.14080      -11.29450
H         -5.01710       42.76360       -8.87830
H         -2.37820       45.38990      -10.33070
H         -4.78990       45.05670       -8.44230
H         -2.97680       47.40590       -9.27120
H         -5.99080       46.77450       -9.98870
H         -5.08890       48.83520       -4.00520
H         -3.91180       47.98920       -4.95480
H         -7.70810       49.12840       -9.24410
H         -7.71750       49.41770       -6.17860
H         -8.99470       49.96490       -7.38280
