186
630_3_01010101.out	Energy:   -6183.1355306
C         13.28690       17.33010        2.35860
C         13.40000       17.49950        1.02910
C         12.23330       18.26160        0.56620
C         11.43030       18.51730        1.77640
C         12.07090       17.95880        2.81820
C         10.20660       19.21400        1.90190
N          9.20180       19.78380        2.01750
C         11.98830       18.62800       -0.71050
C         10.82440       19.38210       -1.17420
C         10.93510       19.56250       -2.50450
C         12.15290       18.92530       -2.96060
C         12.79100       18.37310       -1.91620
C         14.01800       17.68160       -2.04030
N         15.02550       17.12400       -2.15700
C          9.94630       20.24740       -3.28230
C         10.18900       21.33620       -4.03150
C          9.15270       22.02690       -4.74540
S          7.52020       21.43470       -4.72130
C          6.89280       22.71530       -5.65810
C          7.90180       23.57600       -6.01990
C          9.19400       23.17900       -5.51950
C         10.36620       23.90240       -5.78830
C         10.17350       25.04960       -6.61560
C         11.36810       25.87090       -6.93090
C         12.61220       25.38620       -7.06290
C          8.86090       25.44160       -7.10090
C          8.66970       26.65280       -7.99020
C          7.67830       24.70700       -6.80720
C          5.50690       22.68980       -5.95370
C          4.62810       23.26870       -5.12240
C          3.20780       23.20590       -5.32770
C          2.58810       23.63960       -6.44370
C          1.14840       23.43810       -6.28420
C          0.97360       22.87160       -4.93660
C          2.19710       22.73550       -4.39550
C         -0.21860       22.52040       -4.26380
N         -1.19660       22.23730       -3.70070
C          0.22120       23.70950       -7.22410
C         -1.21310       23.49300       -7.08300
C         -1.80270       23.78230       -8.25850
C         -0.79370       24.26380       -9.17950
C          0.40580       24.22930       -8.58050
C          1.58690       24.65060       -9.22200
N          2.56030       24.99910       -9.76250
C         -3.21630       23.67910       -8.45320
C         -3.79420       23.40970       -9.63390
C         -5.20550       23.25060       -9.74890
S         -6.11320       22.64320       -8.40670
C         -7.60940       22.69780       -9.23050
C         -7.42950       23.19090      -10.50870
C         -6.05120       23.46270      -10.82250
C         -5.62780       23.92460      -12.07960
C         -6.68370       24.05730      -13.02550
C         -6.29590       24.48930      -14.37590
C         -6.22690       25.77590      -14.73860
C         -8.06090       23.77290      -12.71500
C         -9.15610       23.87550      -13.75190
C         -8.47510       23.38430      -11.42030
C         -8.74380       22.23970       -8.50960
C         -9.74500       21.62680       -9.14620
C        -10.97040       21.24160       -8.53360
C        -12.12180       21.19300       -9.22960
C        -13.16770       20.70510       -8.34040
C        -12.52110       20.50400       -7.03380
C        -11.22000       20.80320       -7.17680
C        -13.08430       20.08880       -5.81260
N        -13.54210       19.74920       -4.80160
C        -14.43930       20.46830       -8.70980
C        -15.46370       19.92280       -7.83700
C        -16.58960       19.76470       -8.55570
C        -16.34020       20.18830       -9.91670
C        -15.07460       20.64080      -10.01720
C        -14.54860       21.16030      -11.20790
N        -14.11830       21.60420      -12.19470
C        -17.76040       19.18100       -7.98540
C        -19.01660       19.42700       -8.38330
C        -20.14200       18.85290       -7.71440
S        -19.91650       17.77370       -6.37730
C        -21.58150       17.54690       -6.11240
C        -22.31760       18.28870       -7.00390
C        -21.49970       19.01480       -7.93520
C        -22.02940       19.80870       -8.95940
C        -23.45280       19.83760       -9.00280
C        -24.07080       20.62730      -10.09570
C        -23.52880       21.72140      -10.65230
C        -24.26750       19.07370       -8.07170
C        -25.77950       19.07250       -8.14660
C        -23.71270       18.29780       -7.01310
C        -21.95210       16.67940       -5.06160
C        -22.09690       15.36850       -5.29980
C        -22.41750       14.43450       -4.25730
C        -22.08820       13.12730       -4.29770
C        -22.58310       12.48630       -3.07610
C        -23.30720       13.53830       -2.34580
C        -23.19190       14.67370       -3.05050
C        -24.03890       13.45520       -1.14050
N        -24.64940       13.40590       -0.15480
C        -22.36780       11.20240       -2.72070
C        -22.83660       10.57750       -1.48460
C        -22.40220        9.30290       -1.45070
C        -21.64350        9.04960       -2.66590
C        -21.61730       10.15610       -3.43100
C        -20.95860       10.21600       -4.68490
N        -20.42670       10.26780       -5.71320
C        -22.69260        8.41090       -0.35780
C        -23.31580        7.23520       -0.52600
C        -23.64540        6.41470        0.58990
S        -22.50820        5.22630        1.10470
C        -23.52450        4.60770        2.36920
C        -24.72010        5.30740        2.37190
C        -24.79090        6.33810        1.35980
C        -25.91990        7.15520        1.16620
C        -26.98730        6.88550        2.06970
C        -28.20040        7.71000        1.92580
C        -28.37630        8.87250        2.56720
C        -26.92410        5.84710        3.06940
C        -28.08950        5.56460        3.99090
C        -25.78340        5.02080        3.23800
C        -23.00620        3.51550        3.13440
C        -23.30330        3.29680        4.42150
H         13.96290       16.82940        2.95640
H         14.17200       17.15430        0.43770
H         11.74360       17.97670        3.79670
H         10.04920       19.71910       -0.58230
H         12.48040       18.89970       -3.93900
H          8.98210       19.87970       -3.26630
H         11.15660       21.68910       -4.09610
H         11.28990       23.62800       -5.41890
H         11.23270       26.88610       -7.05760
H         12.78790       24.37630       -6.94360
H         13.39350       26.02330       -7.28380
H          9.61350       27.13140       -8.14880
H          7.99680       27.33850       -7.51910
H          8.26380       26.34420       -8.93080
H          6.74320       24.98420       -7.14440
H          5.17270       22.22400       -6.81190
H          4.98700       23.78040       -4.30120
H          3.05180       24.04550       -7.27150
H          2.39000       22.35320       -3.45650
H         -1.69460       23.17270       -6.22820
H         -0.97000       24.58320      -10.14480
H         -3.82940       23.82060       -7.63520
H         -3.20460       23.31600      -10.47560
H         -4.64380       24.14690      -12.29720
H         -6.06620       23.76740      -15.07670
H         -6.45170       26.51700      -14.05650
H         -5.94900       26.02680      -15.70030
H         -8.73370       24.17450      -14.68840
H         -9.87740       24.60090      -13.43820
H         -9.63230       22.92380      -13.86310
H         -9.46710       23.25390      -11.16750
H         -8.79480       22.38100       -7.48860
H         -9.62190       21.41860      -10.14950
H        -12.24240       21.45560      -10.22030
H        -10.50740       20.73150       -6.43370
H        -15.34780       19.69550       -6.83700
H        -17.02380       20.14990      -10.68880
H        -17.62970       18.51770       -7.20570
H        -19.17530       20.04670       -9.19320
H        -21.43850       20.32890       -9.62670
H        -24.98560       20.31190      -10.45470
H        -22.61520       22.06970      -10.32210
H        -24.02550       22.21460      -11.41070
H        -26.09630       19.67940       -8.96880
H        -26.18190       19.46620       -7.23670
H        -26.12880       18.07090       -8.28720
H        -24.28690       17.79180       -6.32080
H        -22.11090       17.05370       -4.11310
H        -21.97400       15.01920       -6.26310
H        -21.57470       12.65780       -5.05980
H        -23.59400       15.58370       -2.77620
H        -23.40660       11.03750       -0.75760
H        -21.19200        8.15320       -2.90580
H        -22.40910        8.68810        0.59500
H        -23.56000        6.92080       -1.47810
H        -25.96990        7.88310        0.43640
H        -28.95030        7.37560        1.30070
H        -27.64210        9.22990        3.19830
H        -29.24610        9.41090        2.43050
H        -28.88770        6.24370        3.77500
H        -27.77930        5.69050        5.00720
H        -28.42610        4.55980        3.84260
H        -25.74020        4.26820        3.94280
H        -22.36460        2.85670        2.66600
H        -23.94170        3.93660        4.91970
H        -22.89400        2.48830        4.91540
