138
630_956_01010101.out	Energy:   -6827.7192314
C        -19.41670       14.56140        1.00810
C        -19.09640       14.02410       -0.19950
C        -17.68930       13.69770       -0.20450
C        -17.18220       14.08790        1.11830
C        -18.23290       14.60510        1.83080
C        -15.85800       13.96550        1.57380
N        -14.77390       13.87370        1.96070
C        -16.95910       13.13930       -1.23460
C        -15.56500       12.81920       -1.22390
C        -15.21120       12.29770       -2.45290
C        -16.39690       12.27030       -3.28530
C        -17.45080       12.76600       -2.56910
C        -18.76990       12.89380       -3.04490
N        -19.83990       12.98430       -3.46660
C        -13.91590       11.86590       -2.88870
C        -12.81350       11.84770       -2.11420
C        -11.48690       11.40990       -2.62260
S        -10.37140       12.88340       -2.84200
C         -9.37160       12.45640       -1.43300
C         -9.65770       11.11670       -0.98700
N         -8.85610       10.59540       -0.07550
N         -9.15010        9.40030        0.43460
C        -10.76410       10.48790       -1.66240
S        -11.31100        8.94550       -1.54890
C         -8.47980       13.40230       -0.97000
C         -8.32490       14.71550       -1.46950
C         -7.35600       15.38470       -0.73410
C         -6.85860       14.41750        0.28140
C         -7.54330       13.25290        0.14020
C         -5.85990       14.65910        1.24560
N         -5.04090       14.82170        2.04150
C         -6.93870       16.71870       -0.87000
C         -5.88850       17.37280       -0.19150
C         -5.83600       18.70270       -0.61460
C         -6.88290       18.90070       -1.57860
C         -7.54880       17.71000       -1.75270
C         -8.64580       17.49130       -2.60400
N         -9.54980       17.30720       -3.29950
C         -4.92540       19.72140       -0.20460
C         -3.85340       19.53470        0.59920
C         -2.93070       20.63590        0.98240
S         -1.97310       21.25710       -0.50300
C         -3.06110       22.65410       -0.70090
C         -3.78250       22.90500        0.52230
N         -4.41930       24.05490        0.63270
N         -5.18100       24.26950        1.70590
C         -3.64800       21.86000        1.50890
S         -4.14690       21.84000        3.07000
C         -3.10020       23.29690       -1.91940
C         -2.37730       22.94830       -3.08440
C         -2.73220       23.79620       -4.12480
C         -3.73030       24.74890       -3.56880
C         -3.94560       24.43630       -2.26510
C         -4.37220       25.79380       -4.26320
N         -4.91520       26.66110       -4.79560
C         -2.28920       23.76530       -5.45780
C         -2.60450       24.66530       -6.49720
C         -1.96620       24.25060       -7.66860
C         -1.22860       23.05480       -7.36790
C         -1.41090       22.75330       -6.03770
C         -0.87190       21.64400       -5.36320
N         -0.43670       20.72780       -4.81010
C         -2.05780       24.91570       -8.92590
C         -1.47780       24.50460      -10.07600
C         -1.63400       25.24540      -11.34920
S         -0.04540       26.15290      -11.77920
C          0.45790       24.86640      -12.90200
C         -0.67130       24.05560      -13.28190
N         -0.51550       23.22800      -14.29700
N         -1.51290       22.39450      -14.60890
C         -1.87000       24.32350      -12.52250
S         -3.39560       23.77570      -12.76480
C          1.78430       24.80250      -13.27670
C          2.82470       25.65640      -12.84510
C          4.02680       25.25220      -13.41220
C          3.71540       24.06700      -14.25490
C          2.38530       23.80790      -14.16050
C          4.63610       23.30390      -15.00020
N          5.36360       22.65080      -15.61280
C          5.30140       25.81200      -13.23180
C          6.50040       25.46250      -13.89170
C          7.53380       26.26540      -13.40960
C          6.98300       27.14200      -12.41440
C          5.63540       26.88500      -12.30020
C          4.74380       27.51540      -11.41590
N          4.00970       28.02580      -10.68380
C          8.91120       26.24620      -13.79580
C          9.43230       25.46360      -14.76260
C         10.87760       25.46710      -15.10680
S         11.72040       23.99350      -14.32630
C         12.29770       23.41930      -15.84950
C         11.93010       24.21150      -16.95660
N         12.40860       23.87200      -18.14800
N         11.98130       24.56210      -19.22620
C         11.14670       25.37680      -16.59580
S         10.59660       26.59580      -17.54110
H        -20.38900       14.90740        1.32530
H        -19.76390       13.85860       -1.02910
H        -18.19410       14.98630        2.84000
H        -14.90810       12.97320       -0.38370
H        -16.42380       11.91050       -4.30290
H        -13.84030       11.53390       -3.92190
H        -12.84000       12.15500       -1.07470
H        -11.56830       10.95350       -3.61160
H        -11.15910       13.82070       -2.30690
H         -8.34660        8.98130        0.87860
H         -9.75760        8.81260       -0.14320
H         -8.87800       15.11590       -2.30290
H         -7.43390       12.35610        0.72880
H         -5.23510       16.91530        0.53340
H         -7.09520       19.83300       -2.07990
H         -5.12000       20.71890       -0.59450
H         -3.60540       18.55500        0.98960
H         -2.18040       20.29180        1.69510
H         -2.47650       20.43980       -1.43010
H         -5.36850       25.25320        1.83140
H         -4.94510       23.70620        2.52780
H         -1.65720       22.14860       -3.13550
H         -4.62080       24.92420       -1.58050
H         -3.23120       25.53780       -6.40730
H         -0.63360       22.48870       -8.06860
H         -2.66000       25.82220       -8.94260
H         -0.87160       23.60710      -10.12290
H         -2.40540       26.01470      -11.28350
H          0.67720       25.82480      -10.70600
H         -1.41160       22.04800      -15.55170
H         -2.44100       22.70040      -14.30420
H          2.68490       26.50350      -12.19400
H          1.84120       23.00840      -14.63740
H          6.59250       24.70420      -14.65220
H          7.54380       27.87640      -11.85580
H          9.57070       26.92620      -13.25970
H          8.81760       24.77670      -15.33350
H         11.38570       26.33730      -14.68250
H         10.58540       23.28820      -14.12830
H         12.93390       22.55350      -15.88560
H         12.64770       24.46860      -19.98010
H         11.64950       25.50690      -19.01420
