154
630_77_01010101.out	Energy:   -4123.8734686
C        -11.29160        2.42470        7.87840
C        -11.72430        3.23040        6.86810
C        -10.61820        4.02590        6.40500
C         -9.46590        3.63400        7.22600
C         -9.89010        2.67100        8.10560
C         -8.16220        4.15170        7.13400
N         -7.08670        4.56690        7.06860
C        -10.62040        4.97620        5.39260
C         -9.53110        5.74920        4.94460
C         -9.95460        6.59850        3.90560
C        -11.37210        6.33950        3.69450
C        -11.78150        5.38040        4.56810
C        -13.09330        4.87200        4.65890
N        -14.17690        4.48010        4.70050
C         -9.21000        7.52410        3.17780
C         -7.86230        7.80800        3.42150
C         -7.07780        8.69930        2.72180
C         -5.77100        9.15180        3.13240
C         -4.96150        8.69600        4.17230
C         -3.73860        9.30890        4.38430
C         -3.32320       10.36690        3.57430
C         -4.12050       10.83840        2.54330
C         -5.35730       10.23730        2.30940
C         -6.41520       10.52940        1.36230
C         -7.37610        9.41380        1.47520
C         -8.14250        8.95770        0.47250
C         -6.60220       11.64950        0.58410
C         -5.67720       12.71550        0.30950
C         -6.28590       13.66930       -0.46800
C         -7.67730       13.22530       -0.68690
C         -7.84730       12.02290       -0.06770
C         -8.67760       13.92190       -1.39300
N         -9.51260       14.46990       -1.97080
C         -5.72460       14.88520       -0.96740
C         -6.34240       15.83830       -1.73700
C         -5.42450       16.91610       -1.98930
C         -4.18140       16.56240       -1.33190
C         -4.34340       15.35670       -0.71640
C         -3.36610       14.67860        0.03820
N         -2.56080       14.13360        0.65950
C         -5.66530       18.08780       -2.66800
C         -6.89800       18.37560       -3.29760
C         -7.30520       19.55400       -3.85900
C         -8.52880       19.69760       -4.62410
C         -9.52800       18.76060       -4.87130
C        -10.59160       19.11560       -5.68560
C        -10.64880       20.38280       -6.26340
C         -9.65890       21.32420       -6.02870
C         -8.59490       20.99940       -5.18550
C         -7.41280       21.74170       -4.78960
C         -6.67970       20.88520       -3.83980
C         -5.82000       21.33730       -2.91350
C         -7.02460       22.99750       -5.20490
C         -7.85090       24.00020       -5.81870
C         -7.10640       25.12450       -6.07310
C         -5.72330       24.82910       -5.65490
C         -5.69250       23.57200       -5.12340
C         -4.62100       25.69300       -5.80400
N         -3.71470       26.39790       -5.91720
C         -7.57460       26.36150       -6.61580
C         -6.91490       27.56150       -6.70350
C         -7.80210       28.54640       -7.26300
C         -9.05480       27.86960       -7.53970
C         -8.93470       26.56550       -7.16530
C         -9.92350       25.57270       -7.31230
N        -10.73640       24.76480       -7.44710
C         -7.58810       29.88710       -7.47040
C         -6.35140       30.54960       -7.28830
C         -6.14790       31.89990       -7.34470
C         -7.10420       32.98980       -7.38920
C         -8.46770       33.00620       -7.10650
C         -9.15630       34.20870       -7.16100
C         -8.49130       35.39360       -7.46270
C         -7.12730       35.40160       -7.71300
C         -6.42070       34.20070       -7.68920
C         -5.01110       33.90680       -7.89880
C         -4.81590       32.53000       -7.41340
C         -3.68370       31.98540       -6.94920
C         -4.07530       34.66930       -8.55990
C         -4.23770       36.00570       -9.06460
C         -3.09710       36.40350       -9.71850
C         -2.15440       35.26880       -9.66280
C         -2.74370       34.25160       -8.97310
C         -0.86810       35.23210      -10.23700
N          0.18790       35.18460      -10.69820
C         -2.86330       37.65630      -10.35880
C         -1.76790       38.05440      -11.09060
C         -1.97420       39.38910      -11.56750
C         -3.27090       39.81260      -11.07750
C         -3.81530       38.79050      -10.35700
C         -5.06890       38.82580       -9.71680
N         -6.09960       38.87360       -9.19930
C         -1.09220       40.10100      -12.35970
C         -1.32820       41.40530      -12.82010
C         -0.53100       42.18390      -13.63160
C          0.73240       41.92820      -14.26410
C          1.58280       40.81930      -14.28490
C          2.75950       40.87460      -15.00770
C          3.12620       42.02540      -15.72900
C          2.31900       43.13560      -15.73790
C          1.11020       43.10590      -15.00830
C          0.12910       44.08150      -14.86190
C         -0.91170       43.56600      -14.02220
C         -2.02700       44.23760      -13.66410
H        -11.88170        1.71110        8.43370
H        -12.72370        3.27790        6.46820
H         -9.28560        2.17340        8.84860
H         -8.53000        5.69410        5.33920
H        -11.97990        6.84190        2.95720
H         -9.73210        8.08020        2.40560
H         -7.40450        7.32880        4.28310
H         -5.27690        7.87050        4.79980
H         -3.09430        8.96350        5.18470
H         -2.35900       10.82830        3.75430
H         -3.76020       11.65570        1.93310
H         -8.18270        9.44930       -0.48850
H         -8.70750        8.04050        0.55010
H         -4.65010       12.73520        0.62590
H         -8.77580       11.47960        0.00300
H         -7.35810       15.80460       -2.09390
H         -3.29000       17.17070       -1.33690
H         -4.85950       18.81200       -2.73440
H         -7.59770       17.54670       -3.36660
H         -9.48220       17.76860       -4.43690
H        -11.38050       18.39920       -5.88410
H        -11.47990       20.63670       -6.91140
H         -9.73370       22.28920       -6.51130
H         -5.51950       22.37380       -2.86740
H         -5.42310       20.70580       -2.13300
H         -8.91590       23.92240       -5.93890
H         -4.80720       23.04800       -4.79990
H         -5.90690       27.76080       -6.37790
H         -9.92000       28.33960       -7.98150
H         -8.42540       30.46770       -7.84490
H         -5.47760       29.91660       -7.15700
H         -8.99250       32.10620       -6.81230
H        -10.21820       34.22840       -6.94380
H         -9.04090       36.32760       -7.47960
H         -6.63780       36.34960       -7.88940
H         -2.75010       32.52550       -6.90970
H         -3.66240       30.98530       -6.53860
H         -5.11980       36.60620       -8.94660
H         -2.31410       33.27640       -8.81280
H         -0.88560       37.47060      -11.29750
H         -3.72610       40.77440      -11.25500
H         -0.16970       39.60050      -12.63060
H         -2.26070       41.85870      -12.49360
H          1.34180       39.91110      -13.74760
H          3.41740       40.01320      -15.02250
H          4.05850       42.02470      -16.28240
H          2.59290       44.02550      -16.29280
H          0.13300       45.06740      -15.30090
H         -2.20300       45.24740      -14.00790
H         -2.79080       43.81420      -13.02820
