146
630_435_01010101.out	Energy:   -5692.4527768
C        -15.37370        6.16180      -21.28360
C        -14.82340        6.40090      -20.08020
C        -13.96390        7.58490      -20.20190
C        -14.07530        8.00610      -21.61020
C        -14.91120        7.15340      -22.22610
C        -13.44750        9.09050      -22.27000
N        -12.94400        9.97680      -22.82000
C        -13.24150        8.13770      -19.20450
C        -12.38540        9.31560      -19.32130
C        -11.83160        9.56830      -18.11900
C        -12.30840        8.56660      -17.18050
C        -13.13550        7.71530      -17.80170
C        -13.76540        6.63730      -17.14290
N        -14.27720        5.75600      -16.58820
C        -10.94300       10.67180      -17.88570
C        -10.34930       10.92190      -16.71110
C         -9.47680       12.02960      -16.54760
C         -8.65460       12.69290      -17.43430
C         -7.91810       13.77190      -16.83010
N         -7.03180       14.55670      -17.51160
C         -6.95160       14.17900      -18.81900
C         -7.67270       13.13350      -19.41790
C         -7.47510       12.81900      -20.86890
N         -8.54350       12.34220      -18.74590
C         -8.18250       13.91020      -15.48330
S         -9.35180       12.73460      -14.99200
C         -7.66100       14.83380      -14.54140
C         -7.53170       14.53300      -13.23270
C         -6.95790       15.68150      -12.54350
C         -6.74380       16.69990      -13.58210
C         -7.16000       16.18200      -14.74950
C         -6.20910       18.00150      -13.45720
N         -5.77140       19.07210      -13.36100
C         -6.69550       15.72440      -11.22340
C         -6.09730       16.85380      -10.52510
C         -5.98280       16.53340       -9.22250
C         -6.47200       15.18280       -9.03150
C         -6.91680       14.69360      -10.19800
C         -7.48970       13.40850      -10.31780
N         -7.96540       12.35300      -10.39640
C         -5.39670       17.41410       -8.25950
C         -5.72030       17.42090       -6.95740
C         -5.14160       18.35750       -6.05420
C         -4.91350       18.24400       -4.69550
C         -4.31280       19.42490       -4.12490
N         -3.97940       19.55660       -2.80960
C         -4.28790       18.42530       -2.11810
C         -4.86560       17.26230       -2.66260
C         -5.16000       16.09460       -1.76760
N         -5.21000       17.12280       -3.97600
C         -4.11630       20.41760       -5.05420
S         -4.65640       19.92430       -6.59800
C         -3.59200       21.71550       -4.91770
C         -4.39930       22.76150       -4.65960
C         -3.57500       23.96510       -4.63540
C         -2.19190       23.51430       -4.88980
C         -2.22890       22.18270       -5.06320
C         -0.99590       24.27120       -4.95030
N         -0.01320       24.88610       -4.99830
C         -4.04310       25.20810       -4.42240
C         -3.22190       26.40450       -4.41450
C         -4.00440       27.46970       -4.16420
C         -5.37030       26.99830       -4.00120
C         -5.41200       25.66460       -4.15850
C         -6.61150       24.92010       -4.10670
N         -7.60330       24.32180       -4.06840
C         -3.54520       28.82810       -4.08850
C         -2.27980       29.21540       -4.30720
C         -1.89510       30.57650       -4.23280
C         -2.38390       31.62770       -3.49020
C         -1.68030       32.86270       -3.72440
N         -1.99340       34.03480       -3.09690
C         -3.04290       33.86410       -2.24090
C         -3.72640       32.66070       -2.00150
C         -4.88760       32.62800       -1.05550
N         -3.42340       31.49480       -2.61880
C         -0.67150       32.73740       -4.65990
S         -0.57550       31.09420       -5.19320
C          0.24140       33.69960       -5.16990
C          0.74280       33.62980       -6.42170
C          1.64890       34.75440       -6.63090
C          1.62750       35.51410       -5.37210
C          0.79370       34.88170       -4.52860
C          2.33260       36.69080       -5.03390
N          2.91080       37.65630       -4.74900
C          2.32500       34.98970       -7.77350
C          3.21010       36.12480       -8.01360
C          3.67470       36.04810       -9.27640
C          3.13030       34.85030       -9.89000
C          2.33530       34.21030       -9.02000
C          1.68540       32.99680       -9.33690
N          1.16030       32.00130       -9.61980
C          4.56700       37.02170       -9.84090
C          5.01870       36.99640      -11.10420
C          5.89520       38.00690      -11.59090
C          6.02640       39.33900      -11.24210
C          7.06300       40.01290      -11.97530
N          7.39520       41.32100      -11.80640
C          6.60790       41.89430      -10.85020
C          5.57960       41.25560      -10.13480
C          4.81460       42.01230       -9.09060
N          5.24960       39.94920      -10.30020
C          7.68880       39.19200      -12.87510
S          7.02550       37.61230      -12.84410
H        -16.02440        5.39060      -21.49980
H        -14.97810        5.84910      -19.22200
H        -15.18160        7.19990      -23.22090
H        -12.23040        9.86350      -20.18190
H        -12.04840        8.51820      -16.18300
H        -10.74970       11.31210      -18.67170
H        -10.52980       10.29730      -15.90970
H         -6.30320       14.70860      -19.42230
H         -6.77070       13.50560      -21.28990
H         -8.40940       12.90620      -21.38320
H         -7.10410       11.82050      -20.97010
H         -7.79550       13.63770      -12.79250
H         -7.12870       16.66910      -15.65890
H         -5.81020       17.74700      -10.95520
H         -6.47720       14.67440       -8.13350
H         -4.68260       18.08400       -8.58570
H         -6.40300       16.73290       -6.60290
H         -4.08050       18.41960       -1.10710
H         -4.84740       16.32230       -0.76990
H         -4.63130       15.23350       -2.11920
H         -6.21130       15.89550       -1.77530
H         -5.41900       22.71950       -4.50630
H         -1.41280       21.58530       -5.26830
H         -2.20280       26.43340       -4.57490
H         -6.18480       27.59770       -3.79560
H         -4.23620       29.55640       -3.84950
H         -1.56840       28.50350       -4.53560
H         -3.36370       34.69620       -1.72160
H         -5.02990       33.60010       -0.63170
H         -4.69150       31.92360       -0.27430
H         -5.77080       32.33690       -1.58480
H          0.52140       32.90020       -7.11720
H          0.57740       35.18980       -3.56770
H          3.44160       36.86290       -7.33050
H          3.32610       34.53740      -10.85370
H          4.88250       37.79380       -9.23320
H          4.72600       36.23220      -11.73300
H          6.78350       42.88760      -10.63230
H          5.16350       43.02320       -9.05550
H          4.96150       41.55090       -8.13650
H          3.77290       42.00280       -9.33480
H          8.46110       39.48690      -13.49280
