161
630_845_01010101.out	Energy:   -4858.0299653
C        -11.76550       -5.35200       -8.10710
C        -12.53040       -4.25810       -8.33590
C        -12.06150       -3.17440       -7.49030
C        -10.92930       -3.73030       -6.72560
C        -10.76820       -5.03060       -7.10740
C        -10.14940       -3.04700       -5.77350
N         -9.49570       -2.50990       -4.98950
C        -12.55430       -1.89990       -7.41580
C        -12.09020       -0.82380       -6.58800
C        -12.84530        0.29830       -6.82850
C        -13.84450       -0.04340       -7.84230
C        -13.68540       -1.34400       -8.19860
C        -14.46800       -2.03030       -9.14850
N        -15.12980       -2.55810       -9.93140
C        -12.67080        1.57180       -6.19960
C        -13.41010        2.65730       -6.51310
N        -13.27940        3.91630       -5.95000
C        -13.99290        5.02720       -6.37280
C        -14.99280        4.99150       -7.46980
C        -13.60550        6.09900       -5.61830
C        -12.61780        5.66730       -4.66530
C        -12.39470        4.25660       -4.85310
O        -11.67580        3.47550       -4.28410
C        -12.24010        6.73630       -3.89520
C        -11.29180        6.73700       -2.75320
N        -12.94740        7.84050       -4.31910
C        -13.84530        7.50700       -5.40660
O        -14.56830        8.30000       -5.94830
C        -12.83830        9.14810       -3.85910
C        -13.84300       10.07670       -3.83300
C        -13.30560       11.30960       -3.33380
C        -11.87190       11.05900       -3.07750
C        -11.60720        9.75930       -3.39420
C        -10.92640       11.98310       -2.59270
N        -10.12380       12.71240       -2.20030
C        -13.96820       12.49620       -3.12410
C        -13.42380       13.73080       -2.65550
C        -14.41830       14.68250       -2.60750
C        -15.66280       14.05040       -3.04620
C        -15.41100       12.75120       -3.35370
C        -16.37100       11.81110       -3.77990
N        -17.19010       11.06930       -4.10830
C        -14.24200       16.03710       -2.19150
C        -15.23870       16.95040       -2.17690
N        -15.11790       18.26630       -1.76590
C        -16.15200       19.19040       -1.81400
C        -17.49940       18.88280       -2.35670
C        -15.69760       20.37110       -1.29720
C        -14.32230       20.21030       -0.90550
C        -13.91960       18.86170       -1.20440
O        -12.87230       18.28610       -1.05300
C        -13.85800       21.39510       -0.39710
C        -12.48360       21.70160        0.07200
N        -14.88410       22.31250       -0.44650
C        -16.08160       21.73760       -1.02230
O        -17.10880       22.34210       -1.17680
C        -14.86780       23.62300        0.02060
C        -15.55960       24.67700       -0.50910
C        -15.28600       25.84030        0.28710
C        -14.39170       25.39280        1.37490
C        -14.14590       24.06320        1.19920
C        -13.86990       26.17940        2.42010
N        -13.42220       26.78960        3.29030
C        -15.72410       27.12740        0.08450
C        -15.44100       28.28040        0.87990
C        -16.05240       29.38200        0.32610
C        -16.76230       28.94210       -0.87580
C        -16.57720       27.60510       -1.03060
C        -17.08320       26.82490       -2.08990
N        -17.50190       26.22410       -2.98030
C        -15.97490       30.71080        0.84530
C        -16.55260       31.78090        0.25650
N        -16.48150       33.08620        0.71500
C        -17.05100       34.16810        0.05970
C        -17.83180       34.04590       -1.19710
C        -16.76330       35.30080        0.76890
C        -15.99130       34.94110        1.92830
C        -15.80130       33.51380        1.92180
O        -15.23320       32.78000        2.68950
C        -15.71720       36.06910        2.65610
C        -15.00030       36.15200        3.95320
N        -16.28320       37.14480        2.00660
C        -16.97670       36.72890        0.80200
O        -17.54980       37.48420        0.06400
C        -16.22210       38.48340        2.37340
C        -17.18330       39.42940        2.12950
C        -16.72500       40.68180        2.64950
C        -15.37940       40.43010        3.20650
C        -15.09290       39.10710        3.03570
C        -14.52760       41.37640        3.80680
N        -13.81500       42.13310        4.30750
C        -17.38930       41.88930        2.66350
C        -16.92080       43.12640        3.19030
C        -17.88610       44.09940        3.00490
C        -19.02520       43.47160        2.33870
C        -18.74740       42.15810        2.13140
C        -19.61210       41.21530        1.53970
N        -20.35040       40.46450        1.07020
C        -17.85410       45.47450        3.37070
C        -16.79610       46.02350        4.02440
N        -16.67100       47.32950        4.41730
C        -15.59890       47.83180        5.11360
C        -14.43470       47.01930        5.54540
C        -15.82210       49.18090        5.32070
C        -17.04580       49.56040        4.75370
C        -17.65490       48.41380        4.14970
O        -18.68220       48.23390        3.55150
C        -17.19820       50.96980        5.01340
C        -18.34550       51.81030        4.59100
N        -16.18360       51.44680        5.67850
C        -15.24050       50.41390        5.93540
O        -14.20340       50.52440        6.52520
H        -11.85900       -6.31920       -8.57750
H        -13.35540       -4.17870       -9.02430
H        -10.02490       -5.71960       -6.73610
H        -11.27080       -0.89480       -5.89150
H        -14.58810        0.63290       -8.23630
H        -11.89170        1.62570       -5.45020
H        -14.18200        2.60380       -7.27430
H        -14.53330        4.66590       -8.40440
H        -15.40400        5.99110       -7.60650
H        -15.80590        4.30370       -7.23230
H        -11.19180        5.71980       -2.37440
H        -11.63820        7.39380       -1.95580
H        -10.30480        7.07420       -3.07470
H        -14.86440        9.92340       -4.13530
H        -10.64260        9.28050       -3.35490
H        -12.39090       13.89080       -2.39390
H        -16.62270       14.54080       -3.10570
H        -13.24120       16.30420       -1.87760
H        -16.24040       16.68710       -2.50200
H        -17.98170       18.09450       -1.77640
H        -17.43390       18.55050       -3.39390
H        -18.11360       19.78140       -2.30990
H        -11.79040       20.98330       -0.36600
H        -12.42020       21.61000        1.15780
H        -12.19020       22.71330       -0.20660
H        -16.19990       24.65250       -1.37380
H        -13.55960       23.43380        1.84850
H        -14.84210       28.28100        1.77550
H        -17.33560       29.58250       -1.52910
H        -15.40160       30.82250        1.75640
H        -17.12410       31.67300       -0.65990
H        -18.69810       33.39800       -1.05460
H        -17.21940       33.62470       -1.99610
H        -18.17510       35.03490       -1.49850
H        -15.01000       35.17010        4.42640
H        -15.46610       36.88290        4.61360
H        -13.95900       36.44000        3.79810
H        -18.12740       39.26960        1.63840
H        -14.16850       38.61940        3.29830
H        -15.95670       43.26610        3.65000
H        -19.93280       43.99060        2.07030
H        -18.71780       46.07130        3.10900
H        -15.94240       45.40630        4.28960
H        -14.74910       46.20530        6.20120
H        -13.73680       47.65930        6.08410
H        -13.92340       46.58190        4.68580
H        -19.27720       51.38930        4.97110
H        -18.41020       51.82690        3.50190
H        -18.22390       52.82620        4.96200
