142
630_804_01010101.out	Energy:   -5703.7447781
C        -24.92200       11.60640      -17.16630
C        -24.30270       12.18160      -16.10430
C        -25.00570       11.80660      -14.89500
C        -26.11610       10.94480      -15.33140
C        -26.04960       10.83760      -16.69340
C        -27.07820       10.33790      -14.50380
N        -27.88230        9.83440      -13.84670
C        -24.70770       12.17090      -13.60360
C        -25.39600       11.79440      -12.41180
C        -24.77510       12.37330      -11.32080
C        -23.64460       13.15580      -11.81850
C        -23.58980       13.04500      -13.17060
C        -22.63360       13.65900      -14.00390
N        -21.83340       14.17530      -14.65410
C        -25.10320       12.27360       -9.94460
C        -26.14160       11.53510       -9.44790
C        -26.44090       11.44030       -8.07430
O        -25.70040       12.10240       -7.13850
C        -26.19650       11.82210       -5.90200
C        -27.29080       10.95550       -6.03410
C        -27.43800       10.72180       -7.40910
O        -28.35370        9.95150       -8.02800
S        -28.33290       10.24760       -4.82950
C        -25.59410       12.38610       -4.75920
C        -24.52600       13.24190       -4.81570
C        -23.88830       13.81420       -3.69130
C        -22.81460       14.69840       -3.72510
C        -22.44110       15.03540       -2.40210
C        -23.36410       14.29950       -1.51420
C        -24.22140       13.58210       -2.29300
C        -23.38380       14.33740       -0.10610
N        -23.43040       14.34610        1.04630
C        -21.41870       15.88280       -1.99100
C        -21.01210       16.17620       -0.66940
C        -19.95680       17.08340       -0.69960
C        -19.67760       17.38500       -2.09870
C        -20.53490       16.67120       -2.87860
C        -20.57320       16.69860       -4.28650
N        -20.57940       16.74160       -5.43920
C        -19.28570       17.60800        0.42600
C        -18.28810       18.54760        0.37900
C        -17.64720       19.05220        1.52470
O        -17.95390       18.59310        2.77230
C        -17.20000       19.26060        3.68930
C        -16.38060       20.18410        3.02070
C        -16.66620       20.04180        1.65740
O        -16.12790       20.71380        0.61920
S        -15.21030       21.31880        3.63890
C        -17.32520       18.95440        5.05740
C        -18.15220       17.96980        5.53480
C        -18.30490       17.63000        6.89670
C        -19.10850       16.60680        7.39460
C        -19.01360       16.57850        8.80490
C        -18.08470       17.66500        9.17680
C        -17.66650       18.27730        8.03330
C        -17.68080       18.01390       10.48030
N        -17.32490       18.32520       11.53260
C        -19.65860       15.71840        9.68810
C        -19.61840       15.73090       11.09980
C        -20.42760       14.71120       11.59560
C        -20.99700       14.00840       10.45220
C        -20.55060       14.59950        9.31050
C        -20.87560       14.19300        8.00130
N        -21.15760       13.83200        6.94280
C        -20.66720       14.43280       12.95790
C        -21.48360       13.43300       13.42200
C        -21.73340       13.20770       14.78710
O        -21.17250       13.99090       15.75340
C        -21.61110       13.57150       16.97290
C        -22.47600       12.47920       16.79790
C        -22.54570       12.25740       15.41720
O        -23.25450       11.31700       14.75980
S        -23.34310       11.51920       17.96520
C        -21.19570       14.23720       18.14000
C        -20.32840       15.29960       18.14490
C        -19.93910       15.99770       19.31110
C        -20.36720       15.79920       20.62020
C        -19.74540       16.74760       21.46660
C        -18.86960       17.56330       20.59980
C        -18.99840       17.10810       19.32200
C        -18.04200       18.62490       21.01380
N        -17.35740       19.49970       21.32530
C        -19.93280       16.91270       22.83310
C        -19.34630       17.88120       23.68170
C        -19.83310       17.71760       24.97220
C        -20.76180       16.59460       24.95350
C        -20.83170       16.10160       23.68650
C        -21.62260       15.01370       23.27160
N        -22.27860       14.11830       22.95520
C        -19.54400       18.46830       26.13980
C        -18.66880       19.51600       26.19060
C        -18.40990       20.26080       27.36350
O        -19.05070       19.98070       28.53600
C        -18.61930       20.84790       29.49000
C        -17.67910       21.70980       28.94080
C        -17.55020       21.33310       27.58770
O        -16.75260       21.88230       26.65040
S        -16.77090       23.02500       29.64500
C        -19.16170       20.75480       30.81500
C        -20.08650       19.86030       31.17880
H        -24.64010       11.69180      -18.20500
H        -23.43090       12.81400      -16.13150
H        -26.72140       10.27510      -17.32390
H        -26.26340       11.15560      -12.38540
H        -22.97420       13.72190      -11.18950
H        -24.47660       12.82060       -9.24610
H        -26.79350       10.96980      -10.10520
H        -28.95130        9.53810       -7.38870
H        -27.74230       10.77830       -3.76750
H        -26.02670       12.10540       -3.80450
H        -24.13080       13.50660       -5.79240
H        -22.33740       15.06190       -4.62050
H        -25.01690       12.94420       -1.93880
H        -21.44780       15.76130        0.22470
H        -18.91120       18.05930       -2.44900
H        -19.59880       17.24040        1.39950
H        -17.95030       18.96410       -0.56350
H        -15.47310       21.35700        0.92650
H        -15.37110       21.03720        4.92460
H        -16.71430       19.53960        5.73690
H        -18.73380       17.39730        4.81760
H        -19.71280       15.94580        6.79520
H        -16.98000       19.10820        7.97340
H        -19.06140       16.42920       11.70290
H        -21.66200       13.16050       10.51070
H        -20.17340       15.07140       13.68530
H        -21.99440       12.76180       12.74040
H        -23.75220       10.76460       15.37960
H        -22.92520       12.15620       19.05010
H        -21.60930       13.86640       19.07210
H        -19.91670       15.63560       17.19780
H        -21.07300       15.05330       20.94610
H        -18.49430       17.49040       18.44740
H        -18.64090       18.63070       23.36300
H        -21.29600       16.23000       25.81790
H        -20.06340       18.18370       27.05050
H        -18.11890       19.83210       25.31080
H        -16.23700       22.61320       27.01990
H        -17.24910       22.91180       30.87660
H        -18.77240       21.47340       31.53020
H        -20.48580       19.13930       30.47900
H        -20.47290       19.82280       32.18670
