126
630_591_01010101.out	Energy:   -4238.4612814
C        -19.60430       -3.00920       10.89750
C        -19.52700       -1.71100       10.52230
C        -18.41650       -1.55690        9.59860
C        -17.82930       -2.90440        9.45550
C        -18.55090       -3.75670       10.23770
C        -16.72260       -3.24730        8.65570
N        -15.81700       -3.54350        8.00590
C        -17.99580       -0.41000        8.98070
C        -16.90220       -0.26700        8.06170
C        -16.81480        1.04740        7.66040
C        -17.87730        1.79280        8.33490
C        -18.58580        0.94220        9.12070
C        -19.68890        1.29080        9.92670
N        -20.58820        1.60360       10.57630
C        -15.89450        1.64590        6.75290
C        -14.89740        0.97610        6.10940
C        -14.01160        1.60420        5.19890
O        -14.12810        2.92420        4.92920
C        -13.18610        3.28070        4.02570
C        -12.42260        2.15580        3.69330
C        -12.95440        1.07610        4.44980
C        -12.51640       -0.26400        4.45250
N        -12.16520       -1.36020        4.46360
C        -11.34150        2.09920        2.79060
N        -10.46000        2.05880        2.05070
C        -13.13380        4.62930        3.58940
C        -13.95400        5.65610        4.01570
C        -13.59800        6.85020        3.32350
C        -12.47730        6.48620        2.42790
C        -12.20820        5.16390        2.59900
C        -11.79240        7.35730        1.55620
N        -11.21850        8.05370        0.83910
C        -14.17400        8.09970        3.44490
C        -13.85620        9.28020        2.71350
C        -14.67170       10.31490        3.13620
C        -15.54500        9.79340        4.18520
C        -15.26470        8.47620        4.37250
C        -15.89950        7.62160        5.29670
N        -16.43210        6.93760        6.05690
C        -14.66100       11.63400        2.61290
C        -15.44290       12.65970        3.05740
C        -15.43980       13.96120        2.49800
O        -16.23520       14.90080        3.05990
C        -16.11550       16.06130        2.37780
C        -15.20790       15.87990        1.32760
C        -14.77040       14.53040        1.40580
C        -13.85090       13.90250        0.54150
N        -13.09810       13.39490       -0.16730
C        -14.79860       16.84020        0.38010
N        -14.46600       17.62480       -0.39440
C        -16.85680       17.19340        2.80300
C        -17.67320       17.26700        3.91540
C        -18.23040       18.57730        3.99400
C        -17.70030       19.31870        2.82870
C        -16.87820       18.48730        2.13360
C        -17.97580       20.66230        2.50150
N        -18.18720       21.75850        2.21500
C        -19.07240       19.07950        4.96680
C        -19.64890       20.38070        5.03550
C        -20.39130       20.49200        6.19740
C        -20.30080       19.21730        6.90720
C        -19.53050       18.36550        6.18040
C        -19.21410       17.03800        6.53400
N        -18.97040       15.95430        6.84280
C        -21.10430       21.64400        6.61860
C        -21.73360       21.77380        7.82290
C        -22.42300       22.94860        8.20830
O        -22.55590       23.98280        7.34700
C        -23.23670       24.98340        7.95140
C        -23.55800       24.59530        9.25690
C        -23.03840       23.28240        9.42070
C        -23.11220       22.46460       10.56610
N        -23.15930       21.78010       11.49060
C        -24.26190       25.34960       10.21750
N        -24.83590       25.97080       10.99890
C        -23.51840       26.16090        7.21070
C        -23.21790       26.37190        5.87980
C        -23.68930       27.66400        5.49750
C        -24.29510       28.25290        6.71170
C        -24.19340       27.34620        7.72120
C        -24.88190       29.53100        6.81070
N        -25.36350       30.57350        6.91050
C        -23.62890       28.24440        4.24800
C        -24.11200       29.52860        3.85470
C        -23.87950       29.71130        2.50710
C        -23.21750       28.50920        2.00020
C        -23.06010       27.63120        3.02480
C        -22.47030       26.35380        2.93410
N        -21.99140       25.30940        2.83990
C        -24.23480       30.86390        1.75130
C        -24.02520       31.01350        0.41630
C        -24.40720       32.18030       -0.30480
O        -25.00020       33.21850        0.33320
C        -25.25950       34.17880       -0.56230
C        -24.84470       33.79940       -1.81490
C        -24.28370       32.48870       -1.65660
C        -23.72240       31.66980       -2.65570
N        -23.26110       30.98370       -3.45750
C        -24.94730       34.54150       -3.01430
N        -25.03500       35.15030       -3.98610
H        -20.32110       -3.44770       11.57520
H        -20.16910       -0.90630       10.83980
H        -18.38070       -4.81580       10.35810
H        -16.26420       -1.07620        7.74630
H        -18.04890        2.85110        8.20970
H        -16.01070        2.70980        6.56690
H        -14.73960       -0.08560        6.26440
H        -14.74100        5.56300        4.74540
H        -11.44580        4.59020        2.09610
H        -13.10360        9.35100        1.94540
H        -16.29120       10.36700        4.71300
H        -13.97000       11.81390        1.79430
H        -16.12580       12.51900        3.88880
H        -17.85650       16.46280        4.60840
H        -16.32980       18.72530        1.23600
H        -19.52030       21.15640        4.29840
H        -20.78010       18.99610        7.84840
H        -21.12640       22.48310        5.92870
H        -21.71530       20.97720        8.55840
H        -22.71870       25.66850        5.23440
H        -24.54230       27.46740        8.73470
H        -24.58690       30.23870        4.51160
H        -22.90870       28.35570        0.97760
H        -24.71490       31.67120        2.29750
H        -23.55380       30.23570       -0.17420
H        -25.73450       35.07650       -0.20120
