122
630_1131_01010101.out	Energy:   -4070.8449217
C         -7.35770        0.86820        0.41310
C         -7.23740        2.01390       -0.29550
C         -6.78250        3.06980        0.59570
C         -6.64360        2.43490        1.92290
C         -6.99050        1.12340        1.79370
C         -6.22960        3.06970        3.10970
N         -5.89160        3.57140        4.09170
C         -6.52700        4.37400        0.28040
C         -6.05560        5.41060        1.16400
C         -5.90290        6.57370        0.45390
C         -6.28950        6.31060       -0.93270
C         -6.66210        5.01050       -1.05110
C         -7.09900        4.38140       -2.23460
N         -7.44860        3.88990       -3.21700
C         -5.43060        7.84810        0.90670
C         -5.05980        8.13760        2.17430
C         -4.54520        9.43880        2.53640
N         -4.17200        9.63950        3.80610
C         -3.66800       10.83620        4.08340
C         -3.25910       11.09180        5.43610
N         -2.93160       11.29800        6.51830
N         -3.50690       11.81500        3.19710
C         -3.91760       11.54140        1.95420
N         -4.44440       10.37500        1.59090
C         -3.76940       12.56120        0.93800
C         -4.21440       12.49130       -0.35120
C         -3.83290       13.70080       -1.04140
C         -3.10900       14.52130       -0.04490
C         -3.08990       13.83650        1.13000
C         -2.55680       15.79820       -0.27190
N         -2.10070       16.84320       -0.44140
C         -4.09020       14.02660       -2.34600
C         -3.66250       15.20010       -3.05880
C         -4.16070       15.16100       -4.33650
C         -4.94170       13.93020       -4.47990
C         -4.89180       13.23860       -3.31260
C         -5.50510       11.99350       -3.06280
N         -6.00320       10.96960       -2.88180
C         -3.93570       16.14080       -5.35470
C         -4.57400       16.19240       -6.54490
C         -4.27750       17.21200       -7.52760
N         -3.22480       18.01500       -7.32200
C         -2.97760       18.90580       -8.27340
C         -1.83980       19.76550       -8.10420
N         -0.92970       20.45450       -7.97020
N         -3.70970       19.06030       -9.37300
C         -4.76430       18.24640       -9.48670
N         -5.06800       17.30210       -8.59620
C         -5.63370       18.41720      -10.63040
C         -6.82900       17.79380      -10.85040
C         -7.40040       18.30450      -12.07510
C         -6.41940       19.27880      -12.60160
C         -5.38000       19.34340      -11.72710
C         -6.54490       20.01540      -13.79700
N         -6.62960       20.62270      -14.77320
C         -8.62820       18.00860      -12.60370
C         -9.23700       18.57360      -13.77800
C        -10.51500       18.09020      -13.90290
C        -10.75450       17.15550      -12.80030
C         -9.63930       17.08870      -12.02960
C         -9.47600       16.28420      -10.88300
N         -9.36470       15.61490       -9.95120
C        -11.45670       18.45940      -14.91440
C        -12.76330       18.11330      -14.92190
C        -13.67350       18.56420      -15.95120
N        -13.18380       19.24390      -16.99690
C        -14.07020       19.63350      -17.90400
C        -13.58230       20.34820      -19.05010
N        -13.19150       20.91890      -19.96790
N        -15.37990       19.41460      -17.82520
C        -15.79150       18.74310      -16.74500
N        -14.96850       18.29120      -15.79880
C        -17.20960       18.50790      -16.58330
C        -17.81660       17.88400      -15.53050
C        -19.24490       17.89540      -15.74390
C        -19.45270       18.57920      -17.03920
C        -18.23450       18.93830      -17.52610
C        -20.69700       18.81620      -17.65790
N        -21.70630       19.01320      -18.17900
C        -20.21150       17.39900      -14.91060
C        -21.63670       17.43660      -15.09690
C        -22.25120       16.84950      -14.01910
C        -21.20750       16.40200      -13.09320
C        -19.99390       16.72160      -13.60980
C        -18.74660       16.45170      -13.00960
N        -17.73990       16.21860      -12.49880
C        -23.66160       16.70820      -13.83230
C        -24.25360       16.14020      -12.75730
C        -25.69060       16.04070      -12.63470
N        -26.18220       15.46900      -11.53160
C        -27.50510       15.39800      -11.45220
C        -28.07360       14.79320      -10.28110
N        -28.53070       14.30990       -9.34380
N        -28.34050       15.85150      -12.38560
C        -27.76840       16.40380      -13.44840
N        -26.46350       16.52040      -13.61640
H         -7.67250       -0.09540        0.04180
H         -7.43570        2.15010       -1.34570
H         -6.99740        0.38180        2.57800
H         -5.85270        5.26700        2.21250
H         -6.27170        7.05140       -1.71780
H         -5.35720        8.63220        0.15660
H         -5.11150        7.40600        2.97270
H         -4.75100       11.66540       -0.78840
H         -2.65130       14.14890        2.06530
H         -3.04690       15.98060       -2.64240
H         -5.45370       13.62660       -5.38010
H         -3.19680       16.90700       -5.13150
H         -5.35310       15.48820       -6.81420
H         -7.28520       17.05980      -10.20670
H         -4.49860       19.96190      -11.79900
H         -8.76300       19.28630      -14.43290
H        -11.67040       16.60630      -12.64500
H        -11.08390       19.09380      -15.71530
H        -13.20410       17.50800      -14.13780
H        -17.31580       17.46250      -14.67440
H        -18.02270       19.45640      -18.44880
H        -22.13290       17.86810      -15.95080
H        -21.38810       15.90000      -12.15510
H        -24.29530       17.09780      -14.62570
H        -23.68140       15.73320      -11.93120
H        -28.41940       16.78410      -14.23010
