126
630_1136_01010101.out	Energy:   -4318.8758428
C          8.60820       17.57730        9.76280
C          7.33530       17.97040        9.52970
C          6.98730       17.63940        8.15680
C          8.19170       17.00150        7.58610
C          9.14630       16.97320        8.55830
C          8.32930       16.50720        6.27490
N          8.46270       16.09560        5.20590
C          5.79940       17.86520        7.52080
C          5.45790       17.54050        6.15960
C          4.16380       17.92430        5.91270
C          3.62820       18.52130        7.13760
C          4.58870       18.49530        8.09670
C          4.45030       18.98590        9.41160
N          4.31080       19.39630       10.47970
C          3.46670       17.77140        4.67400
C          2.17510       18.12770        4.47230
C          1.51690       17.97370        3.21150
C          0.20790       18.25230        2.82900
C         -0.85210       18.71450        3.74980
O         -0.61510       19.26760        4.78810
O         -2.11090       18.44030        3.36570
C          0.18190       17.89090        1.45220
N          1.36690       17.42940        1.08520
O          2.17880       17.47730        2.16520
C         -0.87280       18.00360        0.46870
C         -1.00920       17.22830       -0.64960
C         -2.16560       17.66850       -1.38830
C         -2.71540       18.81280       -0.63020
C         -1.93530       19.00440        0.46900
C         -3.82190       19.60100       -1.00520
N         -4.72040       20.25680       -1.30790
C         -2.65860       17.15740       -2.56130
C         -3.82840       17.58810       -3.27270
C         -3.94830       16.85890       -4.43110
C         -2.83050       15.91540       -4.48680
C         -2.06620       16.06960       -3.37550
C         -0.90710       15.33320       -3.05560
N          0.03500       14.71630       -2.81030
C         -4.94790       16.96830       -5.44800
C         -6.07860       17.70660       -5.32060
C         -7.05440       17.82520       -6.36140
C         -8.29100       18.45650       -6.39870
C         -8.93800       19.29530       -5.35680
O        -10.11580       19.31650       -5.15170
O         -8.08510       20.05680       -4.64750
C         -8.78440       18.14610       -7.69880
N         -7.88910       17.42840       -8.35770
O         -6.84110       17.21350       -7.53020
C        -10.00680       18.54640       -8.36040
C        -11.24740       18.76280       -7.83650
C        -12.12820       19.19930       -8.89590
C        -11.31230       19.20980      -10.12690
C        -10.06120       18.78900       -9.79970
C        -11.77310       19.52810      -11.42040
N        -12.13680       19.77350      -12.48620
C        -13.44450       19.55830       -8.78060
C        -14.26200       20.21000       -9.76740
C        -15.50360       20.45120       -9.23220
C        -15.52640       19.89950       -7.87590
C        -14.30490       19.38450       -7.58670
C        -13.95030       18.71650       -6.39580
N        -13.70590       18.14800       -5.42370
C        -16.61730       21.13610       -9.81310
C        -16.56010       21.85450      -10.96090
C        -17.68940       22.56640      -11.47640
C        -17.79930       23.47430      -12.52570
C        -16.69980       23.82470      -13.45380
O        -15.55070       23.57960      -13.21050
O        -17.07510       24.39680      -14.60690
C        -19.17430       23.83880      -12.50210
N        -19.80180       23.18150      -11.54090
O        -18.88790       22.40780      -10.91050
C        -19.91070       24.79510      -13.30150
C        -19.48560       25.99100      -13.81260
C        -20.59460       26.63200      -14.48140
C        -21.73650       25.70530      -14.34770
C        -21.32100       24.62810      -13.62710
C        -23.03320       25.90190      -14.86420
N        -24.09900       26.04110      -15.28080
C        -20.60510       27.86460      -15.08040
C        -21.70540       28.50660      -15.74410
C        -21.30590       29.74180      -16.19400
C        -19.90130       29.92680      -15.81750
C        -19.47390       28.82000      -15.15970
C        -18.18400       28.62430      -14.62320
N        -17.12830       28.48800      -14.18180
C        -22.12040       30.67930      -16.89810
C        -21.70250       31.90290      -17.30730
C        -22.55180       32.81670      -18.00630
C        -22.30940       34.10250      -18.48760
C        -21.03930       34.84690      -18.36950
O        -20.06670       34.39380      -17.83060
O        -21.04020       36.07650      -18.90890
C        -23.54210       34.46440      -19.07650
N        -24.41570       33.49840      -18.95590
O        -23.80840       32.47910      -18.29530
H          9.16200       17.68160       10.68370
H          6.66830       18.45190       10.22540
H         10.14380       16.57110        8.46580
H          6.12400       17.06800        5.45610
H          2.63090       18.91870        7.24660
H          4.03210       17.33840        3.85320
H          1.57330       18.55930        5.26310
H         -2.16830       17.92280        2.54960
H         -0.37410       16.40280       -0.92610
H         -2.04140       19.79400        1.19690
H         -4.48670       18.37350       -2.94050
H         -2.66940       15.21190       -5.28940
H         -4.77720       16.41740       -6.36820
H         -6.29910       18.22560       -4.39420
H         -7.18190       20.07790       -4.98860
H        -11.54100       18.65730       -6.80600
H         -9.22070       18.65960      -10.46430
H        -13.92050       20.48900      -10.75090
H        -16.38970       19.91900       -7.22820
H        -17.55160       21.09850       -9.25970
H        -15.63800       21.96000      -11.52040
H        -18.03350       24.52470      -14.69050
H        -18.51170       26.43580      -13.68760
H        -21.90810       23.77060      -13.33680
H        -22.68590       28.07630      -15.86590
H        -19.31420       30.80600      -16.03350
H        -23.14180       30.37150      -17.10480
H        -20.69460       32.25290      -17.11910
H        -21.87760       36.33420      -19.31440
H        -23.81440       35.38090      -19.57490
