142
630_728_01010101.out	Energy:   -5756.5352296
C        -33.26540       16.49610       12.97090
C        -33.18470       17.30040       11.87850
C        -32.08150       16.85850       11.05560
C        -31.49450       15.70560       11.75720
C        -32.21990       15.50560       12.90250
C        -30.38840       14.93860       11.34780
N        -29.48380       14.29010       11.03910
C        -31.65840       17.38500        9.85680
C        -30.58280       16.91440        9.05480
C        -30.47960       17.68950        7.91540
C        -31.52170       18.70940        7.97970
C        -32.23230       18.54250        9.12750
C        -33.32070       19.33280        9.54520
N        -34.20530       20.00080        9.86370
C        -29.54700       17.53300        6.84900
C        -28.62150       16.53920        6.89640
N        -27.70130       16.28180        5.92340
C        -26.79920       15.26500        5.98980
S        -25.72920       14.97670        4.66940
C        -24.98320       13.61220        5.45590
C        -25.56320       13.40690        6.72100
C        -26.59840       14.34220        7.02580
N        -27.27750       14.28700        8.19380
C        -26.93630       13.32800        9.02050
C        -25.91110       12.40270        8.71830
N        -25.23010       12.43220        7.59570
C        -23.98430       12.86240        4.80900
C        -23.51200       13.04350        3.51090
C        -22.56130       12.04370        3.21770
C        -22.43410       11.22150        4.44150
C        -23.28930       11.71730        5.37880
C        -21.58090       10.11490        4.61530
N        -20.89200        9.20460        4.78190
C        -21.91780       11.81480        2.00490
C        -21.04350       10.75600        1.66630
C        -20.72320       10.83900        0.31570
C        -21.38780       12.01260       -0.22470
C        -22.09980       12.60950        0.77430
C        -22.86900       13.78050        0.63610
N        -23.48940       14.74300        0.49340
C        -19.94470        9.90580       -0.41800
C        -19.81170        9.93050       -1.77100
N        -19.12330        8.96770       -2.45360
C        -19.09630        8.83270       -3.79830
S        -19.85150        9.93140       -4.88890
C        -19.42980        8.96300       -6.27960
C        -18.70050        7.82670       -5.87970
C        -18.50650        7.75560       -4.46980
N        -17.84690        6.73870       -3.87400
C        -17.39110        5.81850       -4.69610
C        -17.57340        5.88470       -6.09630
N        -18.21440        6.86490       -6.69160
C        -19.85830        9.30720       -7.57210
C        -19.72880        8.54480       -8.73390
C        -20.38080        9.20510       -9.79400
C        -20.90100       10.47520       -9.24000
C        -20.58910       10.51700       -7.91460
C        -21.59910       11.47450       -9.94470
N        -22.16850       12.31440      -10.49370
C        -20.59500        8.73500      -11.08780
C        -21.35000        9.34000      -12.11740
C        -21.41980        8.47560      -13.20530
C        -20.65350        7.28660      -12.87410
C        -20.14690        7.43110      -11.61530
C        -19.33720        6.48860      -10.95250
N        -18.67530        5.69390      -10.44110
C        -22.15410        8.69900      -14.39840
C        -22.33980        7.76330      -15.36830
N        -23.09930        8.01210      -16.47550
C        -23.43880        7.10580      -17.41960
S        -22.93870        5.45760      -17.39920
C        -23.83240        5.08700      -18.85250
C        -24.48900        6.23690      -19.32840
C        -24.26510        7.38480      -18.51360
N        -24.81250        8.59000      -18.78340
C        -25.56720        8.62570      -19.85980
C        -25.79150        7.49290      -20.67590
N        -25.26930        6.31380      -20.42730
C        -23.86240        3.78690      -19.38780
C        -24.56250        3.35280      -20.51280
C        -24.35100        1.96830      -20.68350
C        -23.45060        1.54510      -19.58890
C        -23.16950        2.63920      -18.82630
C        -22.95920        0.24550      -19.36150
N        -22.53990       -0.80900      -19.15210
C        -24.88580        1.13580      -21.66190
C        -24.69810       -0.25660      -21.81020
C        -25.42360       -0.70410      -22.90780
C        -26.09840        0.44540      -23.48900
C        -25.78920        1.55270      -22.75630
C        -26.25630        2.85650      -23.00860
N        -26.66130        3.91080      -23.24510
C        -25.53770       -2.02500      -23.41770
C        -24.91950       -3.10420      -22.86430
N        -25.05740       -4.35750      -23.37630
C        -24.48450       -5.49190      -22.88190
S        -23.46320       -5.54200      -21.50080
C        -23.25120       -7.24560      -21.63800
C        -23.94130       -7.76290      -22.70890
C        -24.65960       -6.75400      -23.43670
N        -25.40970       -7.03350      -24.52930
C        -25.43120       -8.29760      -24.87370
C        -24.72390       -9.30460      -24.16000
N        -23.99280       -9.06820      -23.10440
H        -33.98400       16.56440       13.77380
H        -33.82600       18.13330       11.64060
H        -32.04730       14.73680       13.64050
H        -29.96290       16.07280        9.31400
H        -31.68370       19.46470        7.22530
H        -29.59690       18.21060        6.00260
H        -28.57340       15.87090        7.74710
H        -27.69870       16.85600        5.09030
H        -27.48320       13.27310        9.95740
H        -25.65620       11.62350        9.42970
H        -23.84730       13.81130        2.83360
H        -23.44590       11.34620        6.37950
H        -20.70680        9.98440        2.33920
H        -21.31820       12.35620       -1.24570
H        -19.47560        9.09980        0.13980
H        -20.27120       10.69030       -2.39300
H        -18.66950        8.22370       -1.93410
H        -16.85480        4.98350       -4.25680
H        -17.17390        5.10010       -6.73080
H        -19.23980        7.58670       -8.79040
H        -20.82790       11.30520       -7.21690
H        -21.82820       10.30400      -12.05890
H        -20.50360        6.43850      -13.52490
H        -22.62860        9.66990      -14.51460
H        -21.92310        6.76410      -15.31210
H        -23.50260        8.93500      -16.59820
H        -26.02680        9.57610      -20.11160
H        -26.42240        7.57730      -21.55500
H        -25.17420        3.98030      -21.13950
H        -22.54260        2.67270      -17.94830
H        -24.08950       -0.86840      -21.16520
H        -26.73690        0.40500      -24.35850
H        -26.15970       -2.17290      -24.29620
H        -24.28630       -3.02970      -21.98710
H        -25.63680       -4.49610      -24.19680
H        -22.63580       -7.77310      -20.93030
H        -26.02020       -8.56800      -25.74450
H        -24.78480      -10.33470      -24.49940
