154
630_156_01010101.out	Energy:   -5860.9126333
C          7.50250       15.93670        0.34890
C          6.92050       15.30180        1.38190
C          5.50610       15.09220        1.04720
C          5.33300       15.66820       -0.29900
C          6.52200       16.16060       -0.68750
C          4.16920       15.72570       -1.10060
N          3.22050       15.77750       -1.76760
C          4.58930       14.49960        1.84130
C          3.17450       14.30620        1.51730
C          2.56940       13.69690        2.55610
C          3.57290       13.46110        3.58320
C          4.76520       13.92680        3.18130
C          5.93080       13.83090        3.97250
N          6.87660       13.74310        4.63950
C          1.17200       13.34830        2.56990
C          0.57300       12.75850        3.61400
C         -0.79280       12.40250        3.54300
S         -1.98050       13.51880        4.05650
C         -3.27210       12.43360        3.72450
C         -2.78530       11.24480        3.20890
C         -1.36120       11.20380        3.16860
O         -0.58250       10.15670        2.78370
C         -1.15120        8.89520        3.13840
C         -2.18540        8.42470        2.12370
C         -3.15820        9.51710        1.70570
O         -3.63640       10.25390        2.82780
C         -4.60450       12.84200        3.98080
C         -5.55840       11.95840        4.33590
C         -6.80660       12.68250        4.53980
C         -6.49980       14.09240        4.26440
C         -5.19930       14.16740        3.94160
C         -7.35610       15.21480        4.28930
N         -8.05100       16.14440        4.30550
C         -7.96550       12.11360        4.91950
C         -9.20610       12.83240        5.16780
C        -10.13530       11.94660        5.56980
C         -9.53980       10.62240        5.57130
C         -8.25990       10.70090        5.18790
C         -7.42660        9.56710        5.07700
N         -6.76540        8.61670        4.99610
C        -11.46850       12.33750        5.91210
C        -12.39930       11.48630        6.35790
C        -13.70500       11.93250        6.67730
S        -14.99770       10.84320        6.44290
C        -16.18380       11.96560        6.99040
C        -15.57850       13.14550        7.38090
C        -14.17000       13.14550        7.14410
O        -13.31050       14.17210        7.38360
C        -13.88640       15.44240        7.09200
C        -14.68190       15.95880        8.27970
C        -15.57420       14.89350        8.90620
O        -16.30740       14.16190        7.91980
C        -17.55460       11.60000        7.00630
C        -17.96210       10.33110        7.21650
C        -19.41670       10.30070        7.18840
C        -19.84190       11.68510        6.93260
C        -18.73220       12.43570        6.83470
C        -21.14980       12.20740        6.79820
N        -22.21950       12.63770        6.68670
C        -20.15350        9.19090        7.37340
C        -21.60490        9.13810        7.34930
C        -21.98010        7.86310        7.56240
C        -20.80750        7.04050        7.73830
C        -19.72620        7.81370        7.62990
C        -18.33080        7.22500        7.75850
N        -17.17310        6.73660        7.86510
C        -23.34360        7.45930        7.57450
C        -23.74640        6.19910        7.78540
C        -25.11670        5.83960        7.76020
S        -26.32960        6.99990        7.43540
C        -27.60200        5.87810        7.54610
C        -27.09870        4.61620        7.81380
C        -25.68310        4.60360        7.99350
O        -24.90950        3.53040        8.32010
C        -25.57590        2.62650        9.20540
C        -26.49890        1.66430        8.46590
C        -27.34670        2.34760        7.40660
O        -27.92410        3.54370        7.91800
C        -28.91770        6.35810        7.33340
C        -29.98750        5.54790        7.40370
C        -31.18310        6.32330        7.13050
C        -30.72690        7.69470        6.89260
C        -29.39110        7.70160        7.01520
C        -31.48220        8.84340        6.58470
N        -32.09740        9.79590        6.32970
C        -32.42340        5.80590        7.11290
C        -33.63740        6.55860        6.83520
C        -34.68230        5.71240        6.89550
C        -34.18010        4.38650        7.21480
C        -32.84740        4.42050        7.35140
C        -32.08570        3.27260        7.67070
N        -31.48440        2.31420        7.93130
C        -36.03610        6.13350        6.67360
C        -37.09080        5.30840        6.72880
C        -38.41330        5.77520        6.50090
S        -39.72130        4.94880        7.26620
C        -40.88580        5.98410        6.57160
C        -40.30810        6.95280        5.79010
C        -38.89160        6.80260        5.70450
O        -38.04220        7.55970        4.95720
C        -38.59550        7.91430        3.69300
C        -39.49050        9.14120        3.79290
C        -40.39650        9.13360        5.01810
O        -41.07870        7.88880        5.18100
H          8.49410       16.21940        0.30400
H          7.38610       15.01270        2.25640
H          6.70620       16.62760       -1.58920
H          2.71580       14.59000        0.63750
H          3.39340       13.00180        4.48980
H          0.60430       13.56310        1.73520
H          1.11110       12.56370        4.47270
H         -1.62300        8.98640        4.09440
H         -0.36140        8.17360        3.16130
H         -2.74320        7.62010        2.55550
H         -1.65340        8.12120        1.24640
H         -3.99050        9.06750        1.20560
H         -2.64170       10.19380        1.05750
H         -5.42700       10.94060        4.44490
H         -4.69690       15.03630        3.70150
H         -9.34880       13.84830        5.05490
H        -10.02980        9.75150        5.82920
H        -11.72650       13.33150        5.80920
H        -12.16210       10.48830        6.47100
H        -14.53750       15.34720        6.24830
H        -13.09950       16.13530        6.87840
H        -15.29790       16.76970        7.95120
H        -13.97980       16.26790        9.02570
H        -16.26640       15.36880        9.56940
H        -14.94700       14.20370        9.43130
H        -17.34550        9.51820        7.37130
H        -18.71750       13.45320        6.66340
H        -22.23810        9.93840        7.19550
H        -20.80590        6.02420        7.91790
H        -24.06490        8.17900        7.41130
H        -23.03960        5.47050        7.97120
H        -26.15740        3.19360        9.90190
H        -24.82780        2.04470        9.70190
H        -27.15050        1.20250        9.17790
H        -25.87980        0.94860        7.96640
H        -28.12790        1.68380        7.10000
H        -26.72220        2.59600        6.57400
H        -29.96280        4.53860        7.61720
H        -28.78880        8.53190        6.90150
H        -33.68840        7.56820        6.62750
H        -34.76430        3.54240        7.32070
H        -36.20730        7.12840        6.45920
H        -36.93870        4.31020        6.94200
H        -41.90280        5.89280        6.72120
H        -39.17380        7.09260        3.32510
H        -37.78860        8.14390        3.02890
H        -40.10450        9.18480        2.91770
H        -38.84880        9.99290        3.88090
H        -41.12250        9.91270        4.91390
H        -39.78160        9.28480        5.88060
