150
630_1027_01010101.out	Energy:   -4187.7833978
C         -9.12070       -3.29790      -10.64810
C         -9.41850       -2.31650       -9.76110
C         -8.81630       -1.07820      -10.21550
C         -8.12020       -1.41190      -11.47070
C         -8.31380       -2.74270      -11.71250
C         -7.38320       -0.52470      -12.27680
N         -6.77790        0.18770      -12.95330
C         -8.87380        0.15270       -9.61200
C         -8.28130        1.37290      -10.06500
C         -8.56710        2.38150       -9.16810
C         -9.37290        1.80390       -8.09270
C         -9.56630        0.48360       -8.34260
C        -10.29890       -0.40610       -7.53140
N        -10.90500       -1.10700       -6.84510
C         -8.18840        3.75260       -9.20810
C         -7.46700        4.31910      -10.21800
C         -7.08220        5.68550      -10.27940
C         -6.38310        6.26790      -11.31770
C         -6.20240        7.66040      -10.99790
C         -5.70620        8.85620      -11.38440
C         -6.04540        9.79520      -10.28290
N         -6.70260        9.19400       -9.30690
C         -6.83480        7.87460       -9.69000
C         -7.36770        6.71400       -9.24530
C         -5.71360       11.17330      -10.25980
C         -6.02910       11.97300       -9.19610
C         -5.73330       13.35280       -9.09230
C         -6.00770       14.16250       -7.99750
C         -5.55810       15.48160       -8.26260
C         -4.98080       15.45210       -9.62320
C         -5.08740       14.18200      -10.10210
C         -4.41360       16.54080      -10.31470
N         -3.94650       17.41480      -10.90510
C         -5.62060       16.58720       -7.42730
C         -5.16490       17.90120       -7.69610
C         -5.39420       18.70440       -6.58610
C         -6.02470       17.87400       -5.56550
C         -6.17090       16.61260       -6.05230
C         -6.74390       15.52650       -5.36180
N         -7.22270       14.65780       -4.77330
C         -5.09410       20.07690       -6.40500
C         -4.54850       20.87740       -7.37210
C         -4.23200       22.24870       -7.21330
C         -3.71880       23.06600       -8.20680
C         -3.53490       24.37480       -7.64560
C         -3.14070       25.65260       -7.85260
C         -3.32910       26.33600       -6.54960
N         -3.81010       25.51790       -5.62670
C         -3.96350       24.29440       -6.24280
C         -4.38750       23.03920       -5.96660
C         -3.02970       27.69760       -6.29700
C         -3.17970       28.25340       -5.05580
C         -2.89260       29.60060       -4.72870
C         -2.46720       30.62650       -5.56380
C         -2.29400       31.80980       -4.80170
C         -2.64080       31.45880       -3.40790
C         -3.00020       30.14600       -3.38190
C         -2.61290       32.32540       -2.29770
N         -2.59690       33.01370       -1.37230
C         -1.88680       33.05710       -5.25300
C         -1.68560       34.23440       -4.49210
C         -1.28370       35.26580       -5.33220
C         -1.22650       34.73110       -6.68870
C         -1.57740       33.41710       -6.65560
C         -1.63850       32.55890       -7.77140
N         -1.67900       31.87900       -8.70230
C         -0.97940       36.58700       -4.92870
C         -0.61670       37.60100       -5.77350
C         -0.29860       38.92010       -5.35870
C         -0.24020       39.42830       -4.07150
C          0.14040       40.81000       -4.16640
C          0.42780       41.95260       -3.50080
C          0.75530       42.94610       -4.55290
N          0.66940       42.42670       -5.76770
C          0.29980       41.11000       -5.59540
C          0.04750       39.99560       -6.32060
C          1.12580       44.29100       -4.30860
C          1.39540       45.16630       -5.32550
C          1.78780       46.51510       -5.15110
C          2.01450       47.20680       -3.96670
C          2.41090       48.53390       -4.26760
C          2.41070       48.64180       -5.74210
C          2.04090       47.43460       -6.25210
C          2.73320       49.78820       -6.49440
N          2.98660       50.71590       -7.13130
C          2.75010       49.54100       -3.37430
C          3.16600       50.85970       -3.67370
C          3.41980       51.54350       -2.48980
C          3.15230       50.62610       -1.38720
C          2.75280       49.43010       -1.89650
C          2.40490       48.29130       -1.14410
N          2.12610       47.37280       -0.50410
C          3.85960       52.87630       -2.30950
C          4.11770       53.74640       -3.33640
C          4.55500       55.08210       -3.18260
C          4.80930       55.96330       -4.21680
C          5.22460       57.21130       -3.63620
C          5.61940       58.48680       -3.85560
C          5.83990       59.06380       -2.50460
N          5.59710       58.20400       -1.55010
C          5.20570       57.02430       -2.18110
C          4.81280       55.77230       -1.88340
C          6.26900       60.40880       -2.21030
C          6.52860       61.34680       -3.12350
H         -9.42220       -4.33320      -10.59510
H        -10.00430       -2.41460       -8.86210
H         -7.93340       -3.30210      -12.55380
H         -7.70270        1.46800      -10.96900
H         -9.74530        2.36160       -7.24640
H         -8.51260        4.36430       -8.37130
H         -7.15510        3.70230      -11.05670
H         -6.03660        5.77060      -12.21060
H         -5.17130        9.13350      -12.27950
H         -7.90120        6.52590       -8.32670
H         -5.18990       11.57440      -11.12120
H         -6.54350       11.51490       -8.35450
H         -6.48330       13.83780       -7.08640
H         -4.75580       13.83810      -11.06990
H         -4.70600       18.21490       -8.61900
H         -6.32190       18.22770       -4.58980
H         -5.32590       20.49830       -5.43110
H         -4.33760       20.45270       -8.34980
H         -3.49770       22.77030       -9.22080
H         -2.76070       26.12920       -8.74270
H         -4.76720       22.64600       -5.03650
H         -2.66230       28.29080       -7.12770
H         -3.53700       27.61160       -4.25410
H         -2.29400       30.54680       -6.62430
H         -3.31190       29.57940       -2.51760
H         -1.82070       34.31800       -3.42610
H         -0.94600       35.29180       -7.56710
H         -1.04940       36.78680       -3.86270
H         -0.56380       37.40850       -6.84120
H         -0.43570       38.89210       -3.15590
H          0.43540       42.15950       -2.44200
H          0.07610       39.85500       -7.39020
H          1.19070       44.61030       -3.27370
H          1.30360       44.80130       -6.34570
H          1.91750       46.80420       -2.97200
H          1.94210       47.17830       -7.29600
H          3.26940       51.26010       -4.66850
H          3.26140       50.87910       -0.34330
H          3.99410       53.20720       -1.28370
H          3.98090       53.40690       -4.35980
H          4.71270       55.75200       -5.27060
H          5.75820       59.01330       -4.78690
H          4.69220       55.31210       -0.91500
H          6.37310       60.62910       -1.15170
H          6.43650       61.16950       -4.18680
H          6.84610       62.34030       -2.83900
