170
630_346_01010101.out	Energy:   -8807.2647495
C          6.35560        3.52410        3.41440
C          6.03490        4.49550        2.52990
C          4.66160        4.91170        2.76920
C          4.18900        4.08500        3.89940
C          5.21220        3.26470        4.26960
C          2.91380        4.13900        4.49420
N          1.87710        4.16980        4.99860
C          3.94940        5.86100        2.09390
C          2.58300        6.26050        2.32300
C          2.23860        7.23330        1.42100
C          3.40210        7.49850        0.57410
C          4.42290        6.69170        0.96240
C          5.70900        6.65790        0.38540
N          6.75260        6.65100       -0.10400
C          0.95440        7.86230        1.32390
C          0.63910        8.80520        0.41250
C         -0.64450        9.48240        0.32870
C         -0.69950       10.88040        0.15810
C          0.50060       11.75570        0.06740
O          1.64290       11.41600        0.15300
S         -0.00910       13.43690       -0.17920
C         -1.73770       13.03480       -0.15480
O         -2.60740       13.83440       -0.32720
C         -1.90370       11.57580        0.08670
C         -3.15490       10.93670        0.19410
C         -3.10320        9.53890        0.37280
C         -1.89530        8.83640        0.41130
C         -2.07740        7.35590        0.45450
O         -1.23520        6.52080        0.32240
S         -3.79490        6.97450        0.67510
C         -4.29460        8.67440        0.61850
O         -5.42190        9.02850        0.78700
C         -4.37940       11.71610        0.11200
C         -5.45490       11.38910       -0.63430
C         -6.63310       12.19970       -0.73930
C         -6.90090       13.41590       -0.16050
C         -8.21230       13.84810       -0.55760
C         -8.74400       12.78050       -1.43560
C         -7.79690       11.81190       -1.53470
C        -10.01280       12.76150       -2.04900
N        -11.04680       12.72090       -2.55730
C         -8.84570       15.01600       -0.21580
C        -10.13430       15.47450       -0.65590
C        -10.38160       16.71390       -0.11880
C         -9.23800       17.08120        0.71640
C         -8.32090       16.08010        0.66980
C         -7.09410       16.05350        1.36450
N         -6.10190       16.04860        1.95130
C        -11.55190       17.50370       -0.35570
C        -11.74310       18.74430        0.14110
C        -12.94160       19.54110       -0.05930
C        -13.53860       20.21710        1.02600
C        -13.03610       20.11810        2.42340
O        -12.07380       19.51690        2.79810
S        -14.10900       21.02210        3.50580
C        -15.20290       21.51330        2.19770
O        -16.19660       22.14760        2.38230
C        -14.69640       20.98450        0.89740
C        -15.35250       21.13380       -0.33980
C        -14.75520       20.46060       -1.42460
C        -13.58940       19.70480       -1.30120
C        -13.06620       19.21810       -2.61170
O        -12.04780       18.62930       -2.81160
S        -14.17590       19.69650       -3.91270
C        -15.26720       20.56100       -2.81800
O        -16.24810       21.14040       -3.17810
C        -16.56090       21.92090       -0.53610
C        -16.71990       23.19130       -0.11180
C        -17.89070       23.98050       -0.35210
C        -18.04330       25.30500       -0.02490
C        -19.35640       25.74090       -0.41340
C        -20.01250       24.55640       -1.01220
C        -19.13120       23.52320       -0.97770
C        -21.31770       24.50880       -1.54310
N        -22.38040       24.44830       -1.98590
C        -19.89800       26.99350       -0.27530
C        -21.22300       27.41970       -0.63230
C        -21.36410       28.75360       -0.33970
C        -20.09950       29.23020        0.21960
C        -19.22300       28.19330        0.26930
C        -17.89530       28.25780        0.73920
N        -16.81160       28.33330        1.12500
C        -22.55080       29.52890       -0.54300
C        -22.64190       30.85490       -0.31140
C        -23.82880       31.65510       -0.57020
C        -25.13340       31.29590       -0.17450
C        -25.45930       30.11110        0.67270
O        -24.68880       29.36430        1.19480
S        -27.21770       29.97770        0.85580
C        -27.54050       31.45210       -0.07460
O        -28.64090       31.82980       -0.33980
C        -26.24880       32.07940       -0.48160
C        -26.14210       33.29910       -1.18080
C        -24.83610       33.65970       -1.56680
C        -23.72570       32.87300       -1.27050
C        -22.44670       33.42400       -1.79310
O        -21.36480       32.92430       -1.70950
S        -22.75530       34.97580       -2.59680
C        -24.50230       34.91610       -2.28960
O        -25.26360       35.77450       -2.62220
C        -27.26590       34.16530       -1.50040
C        -28.21870       34.54050       -0.62210
C        -29.29500       35.43250       -0.93370
C        -30.24100       35.88340       -0.04690
C        -31.16590       36.74090       -0.73580
C        -30.70300       36.78470       -2.14120
C        -29.59120       36.01060       -2.24400
C        -31.29830       37.51460       -3.19030
N        -31.76590       38.10620       -4.06230
C        -32.25580       37.38870       -0.21270
C        -33.20660       38.20900       -0.91120
C        -34.15270       38.66020       -0.02500
C        -33.81750       38.13800        1.29980
C        -32.69560       37.37830        1.20110
C        -32.05410       36.71290        2.26570
N        -31.54130       36.18250        3.15150
C        -35.27560       39.48580       -0.35510
C        -36.17940       39.93360        0.54030
C        -37.29650       40.80700        0.21260
C        -38.17570       40.59490       -0.86720
C        -38.18040       39.38780       -1.74430
O        -37.45760       38.44060       -1.67520
S        -39.49040       39.52140       -2.93480
C        -40.06240       41.07540       -2.30240
O        -40.99480       41.67230       -2.74900
C        -39.21540       41.48250       -1.14780
C        -39.47350       42.62880       -0.37550
C        -38.60710       42.83280        0.71180
C        -37.56050       41.95190        0.99080
C        -36.71250       42.36770        2.13980
O        -35.75610       41.79260        2.56770
S        -37.31840       43.89520        2.80140
C        -38.64020       44.01670        1.62070
O        -39.40280       44.93270        1.59070
C        -40.58530       43.52230       -0.71910
C        -41.53740       43.89850        0.12490
H          7.29930        3.00640        3.49710
H          6.66930        4.90950        1.76370
H          5.19380        2.53600        5.06580
H          1.94100        5.84220        3.08090
H          3.43370        8.22350       -0.22470
H          0.21950        7.54530        2.05710
H          1.39900        9.16760       -0.27110
H         -4.36130       12.66490        0.63790
H         -5.45350       10.47460       -1.21860
H         -6.24280       13.98190        0.47790
H         -7.86940       10.89300       -2.09650
H        -10.78580       14.93290       -1.32200
H         -9.15250       17.99650        1.28150
H        -12.31920       17.03670       -0.96490
H        -11.00120       19.17830        0.80200
H        -17.32950       21.45050       -1.13950
H        -15.91660       23.68860        0.42290
H        -17.30510       25.92760        0.45340
H        -19.30820       22.52370       -1.34400
H        -21.98210       26.78100       -1.05360
H        -19.90600       30.24270        0.53880
H        -23.40620       28.98670       -0.93380
H        -21.76550       31.41080        0.00300
H        -27.25530       34.58830       -2.49900
H        -28.18530       34.18140        0.40180
H        -30.29800       35.63200        0.99960
H        -29.01500       35.84120       -3.14050
H        -33.17990       38.41730       -1.96820
H        -34.37650       38.33290        2.20200
H        -35.36250       39.76620       -1.40020
H        -36.05370       39.71240        1.59440
H        -40.62940       43.81930       -1.76200
H        -41.56020       43.58310        1.15840
H        -42.35000       44.53380       -0.19730
