174
630_663_01010101.out	Energy:   -6292.2313064
C        -17.51160       -7.75020        3.03630
C        -16.41460       -7.25450        2.40610
C        -16.50410       -5.81200        2.38220
C        -17.76620       -5.47810        3.05940
C        -18.35550       -6.65200        3.44400
C        -18.28160       -4.18700        3.27350
N        -18.71920       -3.13530        3.45790
C        -15.59940       -4.92060        1.84510
C        -15.68480       -3.50220        1.83660
C        -14.56280       -2.97500        1.20610
C        -13.72760       -4.09810        0.79030
C        -14.32830       -5.25870        1.16230
C        -13.81880       -6.55190        0.92930
N        -13.36970       -7.59290        0.71910
C        -14.22030       -1.62730        0.98010
C        -14.99620       -0.55680        1.37460
C        -14.65630        0.78320        1.17020
S        -15.69730        2.05440        1.74140
C        -14.64560        3.31750        1.19730
C        -13.51970        2.75330        0.53870
C        -13.50750        1.33970        0.54690
N        -12.46590        0.65700        0.03730
C        -11.48170        1.36360       -0.48770
C        -10.28320        0.59000       -0.96190
N         -9.14020        0.87550       -0.09100
C        -11.55000        2.77930       -0.58880
C        -10.50440        3.61970       -1.27320
N         -9.40770        3.88410       -0.33440
N        -12.55390        3.45670       -0.07030
C        -14.84750        4.67400        1.45180
C        -13.92500        5.70120        1.17010
C        -14.42800        6.91370        1.63450
C        -15.75900        6.62610        2.21420
C        -15.98890        5.28530        2.10870
C        -16.62710        7.57160        2.79280
N        -17.34600        8.33760        3.26940
C        -13.77840        8.16100        1.60650
C        -14.27600        9.39590        2.01520
C        -13.28030       10.38310        1.84160
C        -12.10880        9.71690        1.29860
C        -12.38800        8.39030        1.14940
C        -11.48850        7.41160        0.68310
N        -10.72660        6.62870        0.30880
C        -13.34950       11.74370        2.14410
C        -14.48300       12.34940        2.67530
C        -14.58340       13.68450        3.03760
S        -16.06260       14.29690        3.71720
C        -15.43280       15.89570        3.95230
C        -14.08600       15.95650        3.49480
C        -13.61220       14.72660        2.98070
N        -12.36560       14.60690        2.50180
C        -11.59780       15.68280        2.54250
C        -10.20120       15.50830        2.00840
N         -9.24720       15.41570        3.11550
C        -12.07750       16.91620        3.05070
C        -11.23840       18.16650        3.09840
N        -10.22440       18.04070        4.15080
N        -13.30680       17.04840        3.51750
C        -16.20110       16.90240        4.52730
C        -17.54400       16.78520        4.94860
C        -17.95990       17.99310        5.50230
C        -16.80630       18.91560        5.41820
C        -15.76940       18.25530        4.82700
C        -16.78100       20.25290        5.85820
N        -16.73510       21.35080        6.21000
C        -19.22450       18.29510        6.04400
C        -19.63460       19.45660        6.69480
C        -20.98800       19.32460        7.08060
C        -21.43490       18.01540        6.63380
C        -20.39340       17.38730        6.02110
C        -20.44650       16.10070        5.44990
N        -20.52440       15.04720        4.98650
C        -21.73870       20.27510        7.77150
C        -23.07830       20.11370        8.10490
C        -23.83920       21.04290        8.80260
S        -25.52680       20.74410        9.11390
C        -25.75370       22.24050        9.95480
C        -24.53010       22.96250        9.99890
C        -23.46070       22.29870        9.35690
N        -22.23290       22.84530        9.30700
C        -22.08180       24.02040        9.88840
C        -20.71660       24.64390        9.81120
N        -20.80370       25.90120        9.06420
C        -23.15690       24.68370       10.53930
C        -22.97180       26.00650       11.22830
N        -21.98690       25.85600       12.30390
N        -24.36340       24.15730       10.58970
C        -26.97830       22.63990       10.49180
C        -27.23250       23.83200       11.18930
C        -28.58320       23.87200       11.56070
C        -29.19470       22.62290       11.05670
C        -28.22720       21.89920       10.42570
C        -30.54260       22.24000       11.20030
N        -31.64210       21.90720       11.30370
C        -29.23450       24.88660       12.26790
C        -30.58820       24.95290       12.64110
C        -30.81960       26.14100       13.33810
C        -29.55660       26.85940       13.41020
C        -28.59990       26.12390       12.77460
C        -27.24690       26.48930       12.63610
N        -26.14390       26.81600       12.54040
C        -32.06160       26.55120       13.86840
C        -32.28040       27.71360       14.55970
C        -33.52630       28.10840       15.08560
S        -34.98800       27.18970       14.93010
C        -35.90890       28.33500       15.79990
C        -35.14200       29.40900       16.21090
C        -33.77840       29.28640       15.80620
N        -32.86330       30.22770       16.11900
C        -33.29950       31.26580       16.79630
C        -32.25120       32.29490       17.13120
N        -32.43970       33.48500       16.29410
C        -34.67010       31.40080       17.19320
C        -35.16790       32.59370       17.96730
N        -35.30420       33.75130       17.08070
N        -35.56790       30.48700       16.91910
H        -17.74010       -8.78980        3.21670
H        -15.60030       -7.82260        1.98800
H        -19.29470       -6.75500        3.96590
H        -16.49720       -2.93570        2.26100
H        -12.78630       -3.99560        0.27170
H        -13.28200       -1.43240        0.46960
H        -15.93550       -0.74680        1.88600
H        -10.05710        0.84970       -2.00870
H        -10.50760       -0.47960       -0.90820
H         -9.02740        1.88700       -0.01140
H         -8.30520        0.50090       -0.52900
H        -10.96940        4.56220       -1.59450
H        -10.09650        3.10250       -2.14620
H         -9.78190        4.47300        0.40640
H         -8.70940        4.43520       -0.82220
H        -12.97510        5.55430        0.68690
H        -16.86310        4.74870        2.44350
H        -15.26710        9.56940        2.40080
H        -11.17770       10.21070        1.06530
H        -12.46850       12.35290        1.96580
H        -15.36630       11.73880        2.83790
H         -9.94670       16.34340        1.33610
H        -10.16130       14.57460        1.43980
H         -9.31840       16.26850        3.67110
H         -8.31260       15.37640        2.72210
H        -11.89920       19.02390        3.28980
H        -10.72300       18.32210        2.14540
H        -10.69860       17.92930        5.04040
H         -9.68900       18.90060        4.18550
H        -18.13230       15.88740        4.85620
H        -14.78610       18.64360        4.61210
H        -19.02500       20.32410        6.88970
H        -22.42600       17.61160        6.77140
H        -21.24130       21.19650        8.06030
H        -23.58640       19.20430        7.79750
H        -20.01920       23.93770        9.33890
H        -20.36840       24.87840       10.82290
H        -21.06300       25.69350        8.10570
H        -19.88610       26.33200        9.05580
H        -23.94160       26.35420       11.61270
H        -22.57870       26.73610       10.51230
H        -22.37640       25.24310       13.01260
H        -21.84030       26.76600       12.72610
H        -26.49560       24.58840       11.39780
H        -28.34370       20.93870        9.94760
H        -31.33550       24.20680       12.42550
H        -29.41000       27.81560       13.88850
H        -32.90230       25.88010       13.70950
H        -31.46540       28.40890       14.74200
H        -36.96130       28.18160       15.96930
H        -31.26030       31.84980       16.96140
H        -32.32740       32.59970       18.17960
H        -32.34620       33.21000       15.32240
H        -31.70300       34.14770       16.50670
H        -34.48620       32.81410       18.80450
H        -36.15490       32.35260       18.37280
H        -34.39310       33.94620       16.66520
H        -35.56710       34.55120       17.64710
