206
630_355_01010101.out	Energy:   -6527.6149444
C         -7.35970       20.28980       -6.78880
C         -7.04550       18.98980       -6.93380
C         -6.90520       18.40550       -5.59540
C         -7.16450       19.51210       -4.65560
C         -7.42740       20.61140       -5.38270
C         -7.13720       19.50550       -3.24160
N         -7.12290       19.50960       -2.08090
C         -6.60910       17.11180       -5.33080
C         -6.52310       16.51970       -3.99580
C         -6.18850       15.22020       -4.11860
C         -6.08440       14.91270       -5.53720
C         -6.32070       16.01640       -6.26240
C         -6.27950       16.03630       -7.67800
N         -6.24420       16.04100       -8.83840
C         -6.09630       14.32850       -2.99410
C         -5.29370       13.25370       -2.93420
N         -5.18850       12.30850       -1.91940
N         -6.37430       12.05360       -1.18370
C         -6.45510       10.59200       -1.07220
C         -7.39370        9.92240       -2.11000
C         -7.08750       10.23540       -3.58420
C         -7.42200        8.41720       -1.79770
C         -6.04320        7.79930       -1.43770
N         -5.90750        6.55750       -2.22000
S         -7.18380        6.23460       -3.20950
N         -8.03140        7.60250       -2.85690
C         -4.80530        8.69230       -1.64880
C         -3.59490        8.01010       -0.97250
C         -4.99060       10.12980       -1.12510
N         -4.36310       11.18650       -1.96870
C         -2.98900       11.23050       -2.19240
C         -2.23100       10.34630       -2.87360
C         -0.87050       10.86860       -3.01010
C         -0.87340       12.15030       -2.29030
C         -2.11900       12.34050       -1.80920
C          0.22010       13.01570       -2.03590
N          1.11600       13.72100       -1.82700
C          0.10130       10.26930       -3.73630
C          1.41090       10.84680       -4.06860
C          2.04630       10.00040       -4.90510
C          1.21930        8.82280       -5.08990
C          0.07170        8.96090       -4.40270
C         -0.87610        7.91710       -4.30450
N         -1.63890        7.04120       -4.23020
C          3.34290       10.24340       -5.46680
C          3.59250       10.31440       -6.78550
N          4.80630       10.54390       -7.41900
N          5.76080       11.22970       -6.63670
C          6.68980       11.84160       -7.58630
C          8.01010       11.04860       -7.73250
C          7.83640        9.56680       -8.10840
C          8.92560       11.82380       -8.69730
C          8.17200       12.62530       -9.79600
N          9.05350       12.63150      -10.98390
S         10.27550       11.51710      -10.90080
N          9.93240       10.99680       -9.37390
C          6.75800       12.09930      -10.14520
C          6.13160       13.07760      -11.15890
C          5.86830       11.99130       -8.88570
N          4.94430       10.83430       -8.77310
C          4.53360       10.01320       -9.81240
C          4.01390       10.33000      -11.01670
C          3.77450        9.10200      -11.78430
C          4.11280        8.00480      -10.86730
C          4.56830        8.55480       -9.72850
C          4.01560        6.60890      -11.08440
N          3.93170        5.46770      -11.26270
C          3.37840        9.04930      -13.07490
C          3.16980        7.82980      -13.86190
C          2.83000        8.18020      -15.11910
C          2.82860        9.62720      -15.20410
C          3.12090       10.15680      -14.00740
C          3.17190       11.54990      -13.79680
N          3.19640       12.70560      -13.66030
C          2.59280        7.24140      -16.18170
C          1.74280        7.47750      -17.19560
N          1.37820        6.67870      -18.27030
N          1.97450        5.39650      -18.36140
C          0.93410        4.52360      -18.91420
C          0.13870        3.72850      -17.84030
C         -0.48830        4.58050      -16.72270
C         -0.88550        2.82720      -18.55890
C         -1.36030        3.36670      -19.93490
N         -2.73620        2.85870      -20.12520
S         -3.43690        2.33370      -18.71850
N         -2.09270        2.51930      -17.78120
C         -1.31120        4.90510      -20.09360
C         -1.69000        5.24010      -21.55160
C          0.08300        5.47600      -19.76740
N          0.16610        6.73500      -18.97250
C         -0.56490        7.88460      -19.26480
C         -1.90420        8.05190      -19.22920
C         -2.22560        9.46850      -19.41300
C         -0.93190       10.14600      -19.57790
C          0.02260        9.20380      -19.50880
C         -0.69380       11.51650      -19.86050
N         -0.49830       12.63280      -20.09480
C         -3.47120        9.98410      -19.35450
C         -3.80750       11.40440      -19.25970
C         -5.13360       11.50870      -19.04260
C         -5.71760       10.17940      -19.11660
C         -4.75170        9.26850      -19.29890
C         -5.02680        7.90560      -19.55510
N         -5.29130        6.80140      -19.78300
C         -5.81320       12.75470      -18.83570
C         -6.93860       12.84530      -18.11430
N         -7.67090       13.96130      -17.80330
N         -7.03950       15.18870      -17.74290
C         -7.91820       16.03560      -16.94770
C         -8.62250       17.15230      -17.73460
C         -9.37990       16.69500      -18.99340
C         -9.47710       17.92430      -16.70800
C        -10.39670       17.03890      -15.79850
N        -11.77680       17.52100      -15.99340
S        -11.90310       18.85090      -16.96110
N        -10.30260       18.96280      -17.33970
C        -10.31390       15.52900      -16.08030
C        -11.04720       14.67430      -15.03560
C         -8.85290       15.06620      -16.21960
N         -8.76210       13.80900      -16.96750
H         -7.52640       20.95320       -7.56150
H         -6.92430       18.49120       -7.82920
H         -7.64440       21.54300       -4.99530
H         -6.69100       17.01560       -3.10650
H         -5.86180       13.98360       -5.92740
H         -6.68980       14.52920       -2.17400
H         -4.67420       13.11030       -3.74700
H         -7.18750       12.41950       -1.67890
H         -6.92590       10.28470       -0.16180
H         -8.36900       10.34910       -2.00270
H         -6.11890        9.85650       -3.83550
H         -7.10640       11.29450       -3.73530
H         -7.82410        9.77300       -4.20740
H         -8.04080        8.38390       -0.92530
H         -6.05220        7.64070       -0.37960
H         -5.80400        5.77950       -1.56850
H         -8.96830        7.33260       -2.55700
H         -4.64370        8.79400       -2.70160
H         -3.77780        7.91890        0.07780
H         -2.71740        8.60120       -1.13170
H         -3.45140        7.03770       -1.39530
H         -4.53470       10.04470       -0.16080
H         -2.56010        9.44020       -3.24200
H         -2.41590       13.15510       -1.24940
H          1.78100       11.74550       -3.72170
H          1.47350        8.00260       -5.66240
H          4.13460       10.37190       -4.81740
H          2.77850       10.18150       -7.40590
H          6.25440       10.57810       -6.02680
H          7.04840       12.79500       -7.25870
H          8.47120       10.98290       -6.76920
H          7.37590        9.49480       -9.07160
H          7.21810        9.08440       -7.38050
H          8.79430        9.09080       -8.13450
H          9.41150       12.50450       -8.02970
H          7.97820       13.60950       -9.42380
H          9.46750       13.55930      -11.07470
H         10.79110       11.01550       -8.82370
H          6.83280       11.11630      -10.56130
H          6.06730       14.05200      -10.72130
H          5.15120       12.73940      -11.42200
H          6.74160       13.12060      -12.03700
H          5.31980       12.90280       -9.00130
H          3.81550       11.28740      -11.34690
H          4.89690        8.02110       -8.90870
H          3.26700        6.86380      -13.51190
H          2.63170       10.16990      -16.05950
H          3.09990        6.34270      -16.16530
H          1.28710        8.40310      -17.17080
H          2.26170        5.06980      -17.43880
H          1.33900        3.72270      -19.49690
H          0.84030        3.12680      -17.30130
H         -1.22110        5.23700      -17.14330
H          0.27470        5.15770      -16.24370
H         -0.95440        3.93910      -16.00420
H         -0.31220        1.93390      -18.69380
H         -0.68130        3.01930      -20.68550
H         -2.70640        2.07990      -20.78320
H         -1.93450        1.65350      -17.26560
H         -1.99740        5.35010      -19.40360
H         -0.98760        4.78270      -22.21670
H         -1.67310        6.30110      -21.68970
H         -2.67180        4.86900      -21.75930
H          0.41970        5.64300      -20.76930
H         -2.59510        7.29740      -19.09320
H          1.03320        9.38480      -19.61340
H         -3.14430       12.19050      -19.34430
H         -6.72500        9.96880      -19.04020
H         -5.42150       13.61140      -19.25710
H         -7.30330       11.95440      -17.74260
H         -6.92150       15.57590      -18.67910
H         -7.35930       16.62190      -16.24860
H         -7.89550       17.79960      -18.17880
H        -10.16360       16.02250      -18.71350
H         -8.70280       16.19770      -19.65600
H         -9.80000       17.54690      -19.48600
H         -8.74120       18.36810      -16.07050
H        -10.06310       17.14030      -14.78690
H        -12.16580       17.75310      -15.07960
H         -9.96200       19.87510      -17.03600
H        -10.81810       15.37900      -17.01200
H        -10.57530       14.79330      -14.08270
H        -11.00930       13.64530      -15.32640
H        -12.06770       14.98910      -14.97000
H         -8.53770       14.97940      -15.20070
H         -9.61070       13.65490      -17.51200
