158
630_393_01010101.out	Energy:   -4341.3422956
C        -11.89540       21.01140      -17.08980
C        -12.75460       21.73050      -16.34490
C        -13.52080       20.79820      -15.50930
C        -13.00890       19.45580      -15.85160
C        -12.05410       19.60820      -16.78640
C        -13.39410       18.19890      -15.34510
N        -13.71110       17.15460      -14.92060
C        -14.48350       21.13810      -14.62570
C        -15.23490       20.20020      -13.79690
C        -16.09710       20.88580      -13.01890
C        -15.96750       22.29690      -13.34980
C        -15.00990       22.46390      -14.27830
C        -14.62280       23.72580      -14.77680
N        -14.30530       24.76950      -15.17360
C        -17.01650       20.27600      -12.08890
C        -16.74570       19.13280      -11.44020
C        -17.66710       18.59220      -10.52740
N        -17.55750       18.95050       -9.21290
C        -18.51130       18.29990       -8.46480
C        -19.26240       17.49990       -9.32690
C        -18.70160       17.69300      -10.63060
C        -20.41640       16.64970       -8.98830
O        -20.89980       16.57530       -7.85790
C        -21.06650       15.86130      -10.09070
C        -18.50530       18.58350       -7.07860
C        -18.85360       17.64340       -6.19550
C        -18.88610       17.83870       -4.78320
C        -18.23500       17.00670       -3.95160
C        -18.47380       17.45180       -2.58600
C        -19.37250       18.61310       -2.69400
C        -19.61010       18.82030       -4.00030
C        -19.92500       19.40560       -1.67080
N        -20.37310       20.06870       -0.83190
C        -17.94260       16.87530       -1.49220
C        -18.17500       17.30770       -0.12090
C        -17.48100       16.49680        0.69490
C        -16.77850       15.51050       -0.10490
C        -17.03180       15.72390       -1.40510
C        -16.45370       14.95350       -2.43920
N        -15.96510       14.31630       -3.27750
C        -17.48360       16.63800        2.11680
C        -17.92960       15.66460        2.91480
C        -17.88630       15.81050        4.31280
N        -18.40280       14.78530        5.04390
C        -18.22820       15.00870        6.38710
C        -17.63320       16.25530        6.53390
C        -17.43710       16.75620        5.20820
C        -17.27150       16.91340        7.79370
O        -17.42750       16.36940        8.88700
C        -16.68710       18.30650        7.71570
C        -18.71450       14.02040        7.27340
C        -18.71970       12.72880        6.91560
C        -19.27840       11.68150        7.70860
C        -18.82790       10.41630        7.63290
C        -19.65090        9.58940        8.50340
C        -20.67960       10.48130        9.05510
C        -20.44450       11.71060        8.57140
C        -21.76640       10.17790        9.90380
N        -22.66260        9.93550       10.60080
C        -19.44180        8.27990        8.72310
C        -20.22250        7.44810        9.62420
C        -19.68670        6.21440        9.62140
C        -18.56100        6.19650        8.70770
C        -18.40230        7.40950        8.16180
C        -17.40320        7.68820        7.20650
N        -16.57810        7.90420        6.41540
C        -20.20690        5.14530       10.41310
C        -19.65560        3.92520       10.45480
C        -20.19660        2.91940       11.27190
N        -20.78430        3.26620       12.45710
C        -21.24770        2.14920       13.08590
C        -20.92080        1.04310       12.32100
C        -20.24320        1.54780       11.17020
C        -21.22480       -0.34810       12.65060
O        -21.80740       -0.66910       13.68610
C        -20.79850       -1.40080       11.65950
C        -21.90500        2.35530       14.30790
C        -23.22720        2.56310       14.31300
C        -23.96250        2.74290       15.53020
C        -25.11630        3.43390       15.61190
C        -25.61040        3.34340       16.98780
C        -24.63300        2.51520       17.70510
C        -23.68260        2.15950       16.83200
C        -24.63300        2.11160       19.05820
N        -24.60100        1.77610       20.16500
C        -26.74700        3.90480       17.44670
C        -27.25900        3.78300       18.80990
C        -28.41530        4.46630       18.89700
C        -28.70760        5.03300       17.58880
C        -27.72760        4.72510       16.72530
C        -27.72150        5.15720       15.38000
N        -27.73040        5.52370       14.27890
C        -29.20990        4.52110       20.09430
C        -30.01590        5.55340       20.37290
C        -30.79180        5.57430       21.54830
N        -31.95430        6.29720       21.51750
C        -32.60420        6.20720       22.72270
C        -31.83330        5.42240       23.56930
C        -30.68950        5.02240       22.80750
C        -32.10460        5.05240       24.96030
O        -31.32380        4.33550       25.58820
C        -33.34520        5.57960       25.63430
C        -33.82970        6.89770       22.82170
C        -34.96810        6.27440       22.49780
H        -11.22670       21.40190      -17.77200
H        -12.85700       22.75730      -16.35870
H        -11.51740       18.84080      -17.22020
H        -15.12380       19.17420      -13.80510
H        -16.52770       23.05700      -12.93330
H        -17.92210       20.73940      -11.91490
H        -15.85230       18.64610      -11.61340
H        -16.89290       19.58190       -8.85390
H        -19.01990       17.23530      -11.49900
H        -20.53840       16.02630      -11.00650
H        -22.08280       16.17670      -10.20330
H        -21.04130       14.81970       -9.84710
H        -18.23040       19.52160       -6.74790
H        -19.11660       16.71430       -6.55950
H        -17.66480       16.19360       -4.23250
H        -20.21410       19.56290       -4.38610
H        -18.76900       18.09890        0.17270
H        -16.17650       14.76030        0.26890
H        -17.13250       17.51280        2.53690
H        -18.30920       14.79820        2.50230
H        -18.84190       13.99140        4.66150
H        -17.02810       17.67160        4.96390
H        -16.62750       18.61140        6.69180
H        -15.70720       18.30670        8.14550
H        -17.31310       18.98660        8.25460
H        -19.06820       14.29570        8.20310
H        -18.29340       12.47570        6.01050
H        -18.03620       10.08880        7.05750
H        -21.00760       12.54960        8.78130
H        -21.04400        7.75110       10.17050
H        -17.97110        5.37360        8.50800
H        -21.04990        5.32180       10.98160
H        -18.82330        3.72190        9.87950
H        -20.86100        4.18440       12.80390
H        -19.85630        0.98320       10.39780
H        -20.31120       -0.93290       10.82970
H        -21.65910       -1.93410       11.31330
H        -20.12250       -2.08250       12.13180
H        -21.37480        2.34680       15.19330
H        -23.73240        2.59470       13.41370
H        -25.57360        3.94020       14.83760
H        -22.87150        1.56000       17.05060
H        -26.80920        3.26030       19.57770
H        -29.54550        5.58980       17.35900
H        -29.15710        3.73670       20.76280
H        -30.06960        6.34700       19.71540
H        -32.27780        6.80880       20.74110
H        -29.91960        4.42300       23.14350
H        -33.89980        6.17870       24.94260
H        -33.06680        6.17500       26.47860
H        -33.94990        4.75920       25.96030
H        -33.84820        7.87850       23.14230
H        -34.94630        5.29360       22.17750
H        -35.86810        6.77440       22.56810
