162
630_345_01010101.out	Energy:   -6001.9327074
C         14.92000       26.15560        1.70170
C         13.76400       26.35280        2.36050
C         12.83080       27.02270        1.44670
C         13.57320       27.19360        0.18390
C         14.80090       26.67640        0.35980
C         13.14880       27.78410       -1.03000
N         12.81390       28.26320       -2.03210
C         11.56550       27.39040        1.74050
C         10.64320       28.05120        0.81950
C          9.48060       28.27290        1.46080
C          9.60480       27.78290        2.82070
C         10.82170       27.24180        2.99990
C         11.23140       26.64370        4.21180
N         11.55290       26.14810        5.21140
C          8.35000       28.93350        0.87590
C          7.74240       28.50610       -0.24130
C          6.62130       29.19330       -0.78250
C          6.26210       30.52580       -0.78060
C          5.00400       30.78220       -1.43990
N          4.44810       32.02550       -1.55590
C          5.24480       32.96870       -0.97340
C          6.47220       32.72750       -0.33160
C          7.23670       33.85970        0.28370
N          7.02820       31.49660       -0.20860
C          4.42720       29.63730       -1.95160
S          5.43840       28.27440       -1.61330
C          3.18650       29.47250       -2.63440
C          3.01300       28.48810       -3.52760
C          1.78260       28.23120       -4.20400
C          1.14000       27.05220       -4.10190
C         -0.06730       27.12200       -4.91830
C         -0.03760       28.44630       -5.56040
C          1.05050       29.09090       -5.11010
C         -0.93390       29.00750       -6.49730
N         -1.65870       29.48120       -7.26890
C         -0.99950       26.15370       -4.99990
C         -2.21620       26.23220       -5.79140
C         -2.92160       25.10230       -5.59680
C         -2.20740       24.26150       -4.66010
C         -1.05460       24.85400       -4.31820
C         -0.11600       24.25870       -3.44740
N          0.64710       23.75140       -2.74150
C         -4.19260       24.89540       -6.21540
C         -4.71120       23.69790       -6.51630
C         -5.94910       23.57970       -7.21280
C         -6.82320       24.52980       -7.71010
C         -7.95390       23.96780       -8.38660
N         -8.94680       24.71790       -8.94990
C         -8.71590       26.04750       -8.79860
C         -7.61180       26.60770       -8.14630
C         -7.47710       28.09290       -8.02400
N         -6.63050       25.87130       -7.57680
C         -7.93270       22.58940       -8.40500
S         -6.54990       21.99970       -7.56450
C         -8.83410       21.64990       -8.96820
C         -9.56140       21.96130      -10.04910
C        -10.52420       21.07190      -10.62250
C        -11.59990       21.50210      -11.31040
C        -12.34520       20.33140      -11.76930
C        -11.60210       19.16580      -11.27140
C        -10.51960       19.62150      -10.62620
C        -11.89640       17.79160      -11.39850
N        -12.12510       16.65690      -11.48160
C        -13.46190       20.36850      -12.52110
C        -14.19160       19.20360      -12.99720
C        -15.22610       19.63050      -13.74410
C        -15.19870       21.07610      -13.79930
C        -14.17800       21.52920      -13.05740
C        -13.91580       22.90450      -12.88260
N        -13.72500       24.03340      -12.73310
C        -16.12640       18.72670      -14.38520
C        -17.39580       19.02580      -14.69600
C        -18.27850       18.07100      -15.27630
C        -19.60650       18.22400      -15.62600
C        -20.17450       17.03000      -16.19640
N        -21.46480       16.93030      -16.62480
C        -22.13170       18.09500      -16.44560
C        -21.59170       19.26590      -15.88780
C        -22.47990       20.46490      -15.74440
N        -20.30400       19.38580      -15.45070
C        -19.28070       15.98510      -16.25530
S        -17.76760       16.46020      -15.62810
C        -19.40060       14.65400      -16.71730
C        -20.24260       14.34310      -17.71140
C        -20.41350       13.01210      -18.20590
C        -20.31630       11.90480      -17.44400
C        -20.61870       10.74880      -18.27300
C        -20.90510       11.28220      -19.61290
C        -20.81050       12.61930      -19.54430
C        -21.20650       10.58860      -20.80480
N        -21.44270       10.02560      -21.79280
C        -20.64370        9.47910      -17.82850
C        -20.97900        8.32670      -18.64540
C        -20.92410        7.22580      -17.87370
C        -20.58720        7.62800      -16.52080
C        -20.38970        8.95490      -16.48020
C        -19.99660        9.64210      -15.31060
N        -19.66500       10.19930      -14.34800
C        -21.25290        5.90830      -18.32900
C        -21.03450        5.48530      -19.58240
C        -21.40860        4.18230      -19.99660
C        -22.42740        3.35220      -19.58230
C        -22.44210        2.08490      -20.27070
N        -23.36100        1.10580      -20.01080
C        -24.23550        1.50220      -19.03580
C        -24.23230        2.74030      -18.37150
C        -25.25750        3.03830      -17.31790
N        -23.32540        3.71340      -18.62020
C        -21.42500        1.96730      -21.20430
S        -20.51150        3.43650      -21.25080
C        -21.11100        0.89080      -22.08960
C        -19.86500        0.64790      -22.52310
H         15.76060       25.70290        2.09370
H         13.56770       26.08100        3.33660
H         15.54500       26.65470       -0.35480
H         10.84890       28.30550       -0.15930
H          8.86910       27.84130        3.54210
H          7.98510       29.78110        1.33810
H          8.09580       27.66140       -0.71740
H          4.91670       33.94650       -1.00710
H          6.70650       34.77560        0.12560
H          8.20390       33.92480       -0.16930
H          7.34560       33.68740        1.33400
H          2.40900       30.12200       -2.43780
H          3.81840       27.87860       -3.73910
H          1.44780       26.24070       -3.54350
H          1.32310       30.05180       -5.36980
H         -2.49210       27.01960       -6.39880
H         -2.53480       23.34770       -4.30970
H         -4.75250       25.73060       -6.44770
H         -4.20420       22.84320       -6.23800
H         -9.41130       26.69770       -9.19700
H         -8.30490       28.56720       -8.50850
H         -6.56510       28.40770       -8.48650
H         -7.46510       28.36600       -6.98950
H         -8.93070       20.71580       -8.54030
H         -9.42090       22.88470      -10.48810
H        -11.85360       22.48730      -11.48340
H         -9.79180       19.02930      -10.19650
H        -13.95630       18.21900      -12.79660
H        -15.86110       21.66600      -14.32700
H        -15.77860       17.78490      -14.62410
H        -17.74440       19.97890      -14.50870
H        -23.11920       18.12510      -16.74370
H        -23.45370       20.23470      -16.12340
H        -22.06660       21.28300      -16.29640
H        -22.55350       20.73270      -14.71110
H        -18.83110       13.91140      -16.28220
H        -20.79510       15.10120      -18.14150
H        -20.06910       11.88120      -16.44240
H        -20.99260       13.26900      -20.32510
H        -21.21910        8.34830      -19.64880
H        -20.51110        6.99060      -15.71270
H        -21.67970        5.25070      -17.65790
H        -20.58480        6.12140      -20.25940
H        -24.96700        0.82750      -18.76230
H        -25.91400        2.20000      -17.21190
H        -25.82310        3.90030      -17.60420
H        -24.76680        3.22710      -16.38600
H        -21.87470        0.27440      -22.40880
H        -19.08540        1.25100      -22.21720
H        -19.68590       -0.14210      -23.16260
