154
630_225_01010101.out	Energy:   -4256.9522549
C          7.99210        7.74710        8.47870
C          7.55890        8.86020        9.12650
C          6.27870        9.24990        8.57800
C          5.97580        8.26230        7.53190
C          7.01430        7.37040        7.48800
C          4.82860        8.23120        6.71940
N          3.89420        8.18980        6.04250
C          5.49430       10.31950        8.94570
C          4.23670       10.70030        8.39860
C          3.77700       11.83340        9.04360
C          4.77120       12.20330       10.04880
C          5.79840       11.31550       10.00290
C          6.94470       11.34900       10.82110
N          7.86720       11.40870       11.51080
C          2.57790       12.56070        8.82330
C          1.65420       12.23090        7.87070
C          0.45470       12.92380        7.60880
N          0.02080       14.05100        8.29420
C         -1.16740       14.51930        7.82770
C         -1.55740       13.68700        6.79150
C         -0.54880       12.69880        6.66050
N         -0.90130       11.86250        5.64180
C         -2.09450       12.28130        5.11790
C         -2.55360       13.40860        5.78730
C         -3.74500       14.16100        5.55560
C         -4.65710       13.89720        4.58110
C         -5.83670       14.65810        4.34800
C         -6.76530       14.43130        3.34420
C         -7.79580       15.40400        3.42570
C         -7.45160       16.26930        4.57180
C         -6.28360       15.81500        5.10920
C         -8.18690       17.37430        5.04040
N         -8.76770       18.28370        5.44980
C         -8.90610       15.54480        2.60610
C         -9.92890       16.52060        2.68900
C        -10.85150       16.31250        1.67260
C        -10.40730       15.15740        0.90470
C         -9.25050       14.68840        1.45040
C         -8.52100       13.57870        0.98200
N         -7.94870       12.66500        0.57120
C        -12.01240       17.09030        1.44160
C        -12.91880       16.88900        0.43840
C        -14.06910       17.68850        0.25900
N        -14.98090       17.46820       -0.76370
C        -16.01880       18.34820       -0.73830
C        -15.80650       19.19610        0.33580
C        -14.59540       18.78440        0.95070
N        -14.36340       19.60310        2.01850
C        -15.37830       20.51430        2.10920
C        -16.30680       20.31520        1.09440
C        -17.51260       21.03900        0.84680
C        -17.96580       22.06160        1.62200
C        -19.17570       22.77930        1.41510
C        -19.66210       23.78300        2.23890
C        -20.90630       24.24370        1.73880
C        -21.16970       23.46100        0.51460
C        -20.13280       22.59230        0.33580
C        -22.29040       23.58160       -0.32820
N        -23.19740       23.66090       -1.03760
C        -21.73760       25.20920        2.28950
C        -23.00080       25.64340        1.82010
C        -23.51210       26.59610        2.69190
C        -22.53660       26.78900        3.75500
C        -21.47100       25.97170        3.52890
C        -20.32600       25.88500        4.34350
N        -19.40490       25.84100        5.03720
C        -24.74810       27.28790        2.64300
C        -25.68380       27.15430        1.65440
C        -26.91590       27.84230        1.65050
N        -27.84190       27.71610        0.62470
C        -28.95970       28.46290        0.83400
C        -28.79130       29.11840        2.04280
C        -27.52200       28.73100        2.54500
N        -27.33150       29.35590        3.74370
C        -28.42790       30.12420        4.02340
C        -29.36930       30.02110        3.00690
C        -30.64140       30.66490        2.91670
C        -31.14980       31.49280        3.86920
C        -32.40750       32.15390        3.80080
C        -32.92880       32.99050        4.77540
C        -34.19390       33.47600        4.35450
C        -34.44020       32.87660        3.02830
C        -33.37030       32.09070        2.71280
C        -35.57790       33.06780        2.22190
N        -36.49740       33.20580        1.53830
C        -35.03980       34.34300        5.03110
C        -36.28670       34.85990        4.60450
C        -36.79690       35.70510        5.58120
C        -35.84420       35.72790        6.68360
C        -34.79190       34.92260        6.36990
C        -33.67600       34.69070        7.19670
N        -32.77980       34.52580        7.90450
C        -38.01750       36.42090        5.51190
C        -38.48800       37.25590        6.48780
C        -39.69470       37.98400        6.43020
N        -40.58730       37.95630        5.36650
C        -41.66640       38.75810        5.56960
C        -41.50650       39.35340        6.81220
C        -40.28270       38.86910        7.34090
N        -40.09340       39.43720        8.56570
C        -41.15720       40.26760        8.83290
C        -42.05790       40.25550        7.78800
C        -43.30220       40.98430        7.66610
C        -43.80060       41.82020        8.57770
H          8.91300        7.21200        8.65600
H          8.06760        9.38340        9.91940
H          7.09940        6.52170        6.82630
H          3.73460       10.17410        7.60390
H          4.68190       13.05280       10.70950
H          2.40790       13.42800        9.45630
H          1.82820       11.36670        7.23680
H          0.53330       14.47030        9.05390
H         -1.63130       15.39000        8.26160
H         -0.38020       11.06400        5.31710
H         -2.54130       11.74230        4.29670
H         -3.90000       15.00470        6.22170
H         -4.49530       13.05530        3.91270
H         -6.71270       13.64230        2.61190
H         -5.77170       16.23830        5.96000
H         -9.98340       17.30470        3.42630
H        -10.91750       14.74620        0.04680
H        -12.17850       17.91190        2.13480
H        -12.77760       16.07950       -0.27150
H        -14.87670       16.73230       -1.44440
H        -16.80770       18.30090       -1.47100
H        -13.57840       19.55640        2.64780
H        -15.37080       21.25190        2.89680
H        -18.08790       20.71900       -0.01690
H        -17.38350       22.36690        2.48790
H        -19.17590       24.14740        3.12880
H        -20.03150       21.88300       -0.47160
H        -23.48620       25.27580        0.93110
H        -22.65840       27.47620        4.57900
H        -24.95140       27.97050        3.46500
H        -25.49560       26.49060        0.81590
H        -27.68980       27.13340       -0.18360
H        -29.76820       28.46780        0.12140
H        -26.52280       29.27430        4.33780
H        -28.46300       30.69970        4.93550
H        -31.21400       30.45820        2.01750
H        -30.56890       31.68500        4.76800
H        -32.44580       33.23890        5.70620
H        -33.25100       31.51580        1.80700
H        -36.76260       34.63790        3.66340
H        -35.95980       36.29200        7.59680
H        -38.60220       36.28360        4.60530
H        -37.91230       37.39960        7.39720
H        -40.44530       37.40020        4.53800
H        -42.44580       38.84030        4.82980
H        -39.31330       39.28590        9.18310
H        -41.19020       40.81280        9.76380
H        -43.84770       40.81030        6.74200
H        -43.30080       42.02900        9.51430
H        -44.73960       42.33200        8.42010
