134
630_296_01010101.out	Energy:   -5085.6356532
C         11.83110        3.42140      -21.28490
C         11.45190        4.27650      -20.31820
C         10.91030        5.48100      -20.96370
C         11.04710        5.23880      -22.41140
C         11.59990        4.02540      -22.57270
C         10.72120        6.05620      -23.52000
N         10.46970        6.65790      -24.47520
C         10.36280        6.53160      -20.31590
C          9.64860        7.63690      -20.94890
C          9.14730        8.44200      -19.98900
C          9.57570        7.91780      -18.69830
C         10.29000        6.79440      -18.87440
C         10.90810        6.09370      -17.81480
N         11.40360        5.52100      -16.93850
C          8.31760        9.60340      -20.19230
C          7.91160       10.08910      -21.37590
C          7.08380       11.23610      -21.58090
C          7.15370       12.04070      -22.70700
C          7.76530       12.37490      -24.00310
C          6.76220       13.55690      -24.03800
C          6.29850       13.06580      -22.72620
S          5.30980       13.18530      -21.43500
C          6.06920       11.73110      -20.73370
C          5.57280       11.27470      -19.47960
C          6.08960       11.71450      -18.31240
C          5.42990       11.00080      -17.21270
C          4.41170       10.15040      -17.84970
C          4.52720       10.30750      -19.18170
C          3.42540        9.35070      -17.22900
N          2.61340        8.69960      -16.70830
C          5.78820       11.08020      -15.91340
C          5.28080       10.23790      -14.82950
C          5.99120       10.50540      -13.71580
C          6.95990       11.54340      -14.02500
C          6.81940       11.93010      -15.30220
C          7.53130       13.01100      -15.86710
N          8.12110       13.89890      -16.32730
C          5.83210        9.84270      -12.45220
C          4.66640        9.74740      -11.78950
C          4.53070        9.14250      -10.50290
C          5.51800        9.08090       -9.53400
C          6.88320        9.39350       -9.08620
C          6.47380        8.71090       -7.75690
C          5.16210        8.48670       -8.39390
S          3.63220        7.92340       -8.34130
C          3.36410        8.53180       -9.99940
C          2.08010        8.32530      -10.57770
C          1.07150        9.21300      -10.43200
C         -0.10050        8.70940      -11.17060
C          0.31320        7.50850      -11.74420
C          1.58920        7.24590      -11.41360
C         -0.50190        6.65450      -12.70180
N         -1.17810        5.94610      -13.49610
C         -1.36100        9.12150      -11.29790
C         -2.51430        8.67370      -12.08110
C         -3.58710        9.41630      -11.73060
C         -3.15060       10.35880      -10.72520
C         -1.85080       10.15330      -10.50530
C         -1.04010       10.99530       -9.53360
N         -0.36750       11.69380       -8.72750
C         -4.89130        9.28610      -12.31810
C         -5.95700       10.01940      -11.95140
C         -7.25020        9.92940      -12.54690
C         -7.61270        9.10390      -13.59430
C         -7.25760        8.08350      -14.59070
C         -8.72700        8.20760      -15.06230
C         -8.88050        9.21190      -13.99320
S         -9.78770       10.29100      -13.17310
C         -8.37190       10.69480      -12.16940
C         -8.53150       11.68940      -11.16550
C         -8.30190       12.99730      -11.40970
C         -8.51730       13.74810      -10.16190
C         -8.92910       12.74110       -9.16750
C         -8.93120       11.54230       -9.77630
C         -9.33940       12.93400       -7.82610
N         -9.67890       13.09190       -6.72500
C         -8.32410       15.07590       -9.99840
C         -8.36640       15.80050       -8.72370
C         -7.99520       17.07990       -8.93960
C         -7.79540       17.25290      -10.37020
C         -7.97820       16.08540      -11.00740
C         -7.91680       15.95700      -12.41370
N         -7.86370       15.86910      -13.56820
C         -7.87820       18.07620       -7.90340
C         -7.04260       19.12690       -7.98420
C         -6.87530       20.10950       -6.96850
C         -7.81130       20.54760       -6.05630
C         -9.17200       20.50330       -5.50890
C         -8.67810       21.58730       -4.51600
C         -7.38180       21.48860       -5.20970
S         -5.82830       21.95450       -5.39670
C         -5.68990       20.81320       -6.73730
H         12.22570        2.48070      -21.12890
H         11.52790        4.11520      -19.30170
H         11.82510        3.59130      -23.48150
H          9.54420        7.77920      -21.96570
H          9.36180        8.34660      -17.78430
H          8.00660       10.10910      -19.34810
H          8.22760        9.58560      -22.21950
H          7.62890       11.64210      -24.77080
H          8.81970       12.50750      -24.12780
H          6.03480       13.50930      -24.82130
H          7.07060       14.56900      -24.19750
H          6.82460       12.43170      -18.21060
H          3.95810        9.81470      -19.88750
H          4.51030        9.55550      -14.90510
H          7.65210       11.92580      -13.36190
H          6.66670        9.41150      -12.02490
H          3.82030       10.13390      -12.23650
H          7.10760       10.43690       -9.00980
H          7.75360        9.10840       -9.63940
H          6.45710        9.35680       -6.90400
H          7.04310        7.91780       -7.31900
H          1.11450       10.09330       -9.89520
H          2.12900        6.41610      -11.70530
H         -2.50860        7.91750      -12.78330
H         -3.74050       11.06610      -10.25960
H         -5.01800        8.58740      -13.06700
H         -5.83020       10.69680      -11.18320
H         -6.98960        7.12940      -14.18740
H         -6.42520        8.18740      -15.25500
H         -9.31670        7.32330      -14.93890
H         -8.98830        8.40820      -16.08030
H         -8.02290       13.40190      -12.31710
H         -9.18000       10.64900       -9.32340
H         -8.63550       15.39830       -7.81220
H         -7.54880       18.14390      -10.82870
H         -8.46390       17.97810       -7.05940
H         -6.48230       19.22800       -8.84500
H         -9.45080       19.57200       -5.06180
H        -10.04450       20.62820       -6.11560
H         -8.66470       21.28650       -3.48920
H         -9.18820       22.51820       -4.38130
H         -4.82820       20.68040       -7.28950
