126
630_723_01010101.out	Energy:   -5530.2526954
C         -5.03380       -5.44620       -4.86910
C         -4.77790       -4.21180       -4.37680
C         -6.00890       -3.44010       -4.38720
C         -7.03790       -4.34200       -4.94170
C         -6.43750       -5.53330       -5.22360
C         -8.39450       -4.02790       -5.14990
N         -9.50890       -3.79090       -5.32860
C         -6.18780       -2.14820       -3.97230
C         -7.40590       -1.38840       -3.97030
C         -7.15700       -0.12680       -3.47840
C         -5.73420       -0.04920       -3.14610
C         -5.14910       -1.24110       -3.43010
C         -3.78630       -1.54820       -3.23800
N         -2.66760       -1.76700       -3.06630
C         -8.12340        0.90720       -3.31640
C         -7.84020        2.15690       -2.85600
C         -8.78040        3.20670       -2.66480
S         -8.20810        4.74140       -2.10440
C         -9.79920        5.42140       -2.09070
C        -10.74200        4.48530       -2.51560
C        -10.16510        3.22870       -2.84370
C        -10.95150        2.14210       -3.29450
N        -11.61300        1.27200       -3.65780
C        -12.12860        4.73850       -2.64610
N        -13.25700        4.92970       -2.77050
C        -10.00080        6.76620       -1.67570
C        -11.18760        7.43560       -1.45060
C        -10.89850        8.77000       -1.03280
C         -9.42450        8.89050       -1.02840
C         -8.90520        7.68980       -1.39740
C         -8.67830       10.03500       -0.68170
N         -8.04210       10.95380       -0.39870
C        -11.79570        9.75320       -0.66840
C        -11.50880       11.09560       -0.28250
C        -12.68750       11.73990        0.04580
C        -13.78080       10.78640       -0.13510
C        -13.26560        9.60630       -0.56890
C        -14.01070        8.44000       -0.84000
N        -14.65100        7.50370       -1.04330
C        -12.79850       13.08420        0.48970
C        -13.95980       13.65970        0.91660
C        -14.09990       14.99130        1.38760
S        -15.61780       15.48260        2.06030
C        -15.04530       17.08090        2.39840
C        -13.71920       17.22850        1.98710
C        -13.18060       16.04360        1.41790
C        -11.85360       15.98620        0.93050
N        -10.77060       15.96510        0.53880
C        -12.95270       18.41100        2.11850
N        -12.31350       19.36320        2.22200
C        -15.89720       18.01810        3.04190
C        -17.16410       17.75340        3.52810
C        -17.68520       18.92500        4.14950
C        -16.64710       19.96600        3.98840
C        -15.58960       19.41510        3.33420
C        -16.73720       21.30210        4.42910
N        -16.79550       22.39870        4.77950
C        -18.88860       19.06070        4.81310
C        -19.38580       20.20580        5.49920
C        -20.60380       19.89950        6.08000
C        -20.91940       18.51250        5.74520
C        -19.91010       18.00350        4.99050
C        -19.85410       16.69580        4.46770
N        -19.82880       15.62110        4.05030
C        -21.38540       20.77910        6.87480
C        -22.55490       20.42880        7.48500
C        -23.35030       21.27110        8.30460
S        -24.78110       20.61550        9.02720
C        -25.16750       22.10740        9.81500
C        -24.21410       23.08350        9.52080
C        -23.18250       22.61060        8.66560
C        -22.11950       23.44540        8.24740
N        -21.26210       24.14440        7.92620
C        -24.23140       24.41210       10.00840
N        -24.22930       25.49510       10.39980
C        -26.32590       22.19610       10.63400
C        -27.19400       21.15830       10.91430
C        -28.22790       21.62700       11.77780
C        -27.94170       23.05870       12.01190
C        -26.81050       23.38420       11.33040
C        -28.71000       23.93830       12.80160
N        -29.33040       24.66980       13.44100
C        -29.27760       20.90220       12.30310
C        -30.30570       21.36140       13.17870
C        -31.15680       20.31410       13.46990
C        -30.67020       19.13300       12.76030
C        -29.55270       19.46610       12.06280
C        -28.79330       18.59610       11.25550
N        -28.18260       17.86630       10.60420
C        -32.31450       20.29950       14.30020
C        -32.78500       21.37120       14.99280
C        -33.94200       21.33960       15.82130
S        -34.90590       19.91400       16.03000
C        -35.97340       20.72900       17.08760
C        -35.62780       22.04040       17.28920
C        -34.45180       22.40180       16.55890
C        -33.87060       23.69020       16.58460
N        -33.38930       24.73610       16.59660
C        -36.34970       22.93300       18.12280
N        -36.94030       23.64660       18.80450
H         -4.32980       -6.25560       -4.99080
H         -3.83000       -3.83880       -4.02600
H         -6.91250       -6.40730       -5.64250
H         -8.36200       -1.75790       -4.30370
H         -5.23930        0.81830       -2.73700
H         -9.14190        0.64950       -3.58730
H         -6.81490        2.40990       -2.60260
H        -12.17840        7.02830       -1.56220
H         -7.86000        7.43660       -1.48820
H        -10.52540       11.53550       -0.25120
H        -14.82420       10.99660        0.04260
H        -11.87810       13.65880        0.50170
H        -14.86910       13.06630        0.93730
H        -17.66830       16.80290        3.46960
H        -14.67460       19.91640        3.06370
H        -18.88070       21.15550        5.56800
H        -21.81200       17.98710        6.04840
H        -20.99370       21.78330        6.99880
H        -22.93380       19.41840        7.36230
H        -27.10100       20.15010       10.54560
H        -26.34180       24.35420       11.29790
H        -30.38960       22.37100       13.54580
H        -31.14040       18.16210       12.80120
H        -32.84440       19.35330       14.37560
H        -32.27210       22.32710       14.93870
H        -36.81420       20.21230       17.52010
