174
630_784_01010101.out	Energy:   -6292.2383195
C          9.82670       30.16320      -26.06530
C         10.13590       29.49220      -24.93830
C         10.23300       30.46270      -23.84170
C          9.96380       31.77610      -24.45610
C          9.71810       31.57410      -25.76320
C          9.91620       33.05090      -23.84950
N          9.86620       34.10900      -23.37100
C         10.49320       30.15890      -22.55430
C         10.62750       31.11740      -21.45810
C         10.82110       30.43860      -20.31340
C         10.85730       29.02250      -20.61570
C         10.68410       28.83620      -21.93920
C         10.69550       27.56880      -22.54620
N         10.70700       26.50960      -23.04590
C         11.02510       31.09300      -19.04900
C         10.29490       30.86100      -17.94460
C         10.47500       31.58600      -16.71990
S         11.63300       32.88300      -16.58500
C         11.23690       33.20960      -14.96460
C         10.27180       32.35440      -14.51180
C          9.82500       31.43290      -15.49980
N          8.86640       30.50270      -15.25630
C          8.38870       30.47640      -13.96210
C          8.93220       31.39480      -12.95630
N          8.64560       31.47890      -11.60310
C          8.40060       30.29620      -10.84230
N          9.82510       32.38680      -13.24370
N          7.30960       29.55060      -13.76710
C          6.91230       28.78490      -14.97020
C          6.71520       29.04880      -12.63180
C          7.06830       27.91230      -11.98000
C          5.85440       27.30970      -11.44850
C          4.79390       28.30820      -11.62050
C          5.31100       29.31310      -12.34120
C          3.41010       28.17130      -11.43910
N          2.25620       28.03050      -11.36570
C          5.72100       25.99920      -11.16550
C          4.46570       25.36110      -10.79630
C          4.63240       24.03040      -10.87310
C          6.01910       23.75600      -11.20640
C          6.69340       24.90890      -11.34100
C          8.07580       24.96470      -11.64230
N          9.20660       24.99360      -11.89410
C          3.61420       23.08610      -10.53060
C          2.42070       23.00310      -11.13430
C          1.49060       22.00120      -10.73990
S          0.42240       21.38570      -11.96850
C         -0.22200       20.19960      -10.93110
C          0.35580       20.27030       -9.69260
C          1.26140       21.35430       -9.53020
N          1.85130       21.65970       -8.33270
C          1.51870       20.80250       -7.29490
C          0.66090       19.63720       -7.53860
N          0.44030       18.62070       -6.58670
C         -0.75940       17.80830       -6.80040
N          0.06630       19.37990       -8.73470
N          1.93570       21.22620       -5.97440
C          2.34980       20.25430       -4.95190
C          2.54640       22.47030       -5.83440
C          1.99770       23.65100       -5.46140
C          3.06330       24.65520       -5.40470
C          4.29480       23.91970       -5.71540
C          3.99420       22.63970       -5.95250
C          5.66520       24.57040       -5.80910
N          6.80210       25.11030       -5.88690
C          2.92820       25.98410       -5.19750
C          3.99760       26.97560       -5.30610
C          3.45250       28.20430       -5.34540
C          2.03160       28.06500       -5.08940
C          1.71680       26.76450       -4.94130
C          0.47780       26.33060       -4.43790
N         -0.54260       26.01870       -3.98000
C          4.18280       29.43740       -5.42980
C          5.42300       29.56620       -5.92520
C          6.10700       30.81390       -5.95510
S          7.70210       30.82440       -6.64860
C          7.89920       32.49820       -6.40120
C          6.79380       33.04910       -5.80700
C          5.77690       32.08570       -5.51410
N          4.63600       32.40320       -4.87480
C          4.53770       33.70870       -4.48620
C          5.57270       34.68140       -4.87240
N          5.46700       36.04160       -4.47310
C          6.10380       36.97780       -5.38770
N          6.71070       34.36160       -5.52080
N          3.37440       34.08440       -3.73240
C          2.15770       33.31030       -4.00870
C          3.34230       35.12580       -2.83310
C          4.13480       35.35540       -1.79040
C          3.78040       36.64130       -1.18940
C          2.59570       37.10820       -1.92160
C          2.35510       36.20330       -2.89720
C          1.84430       38.29070       -1.73980
N          1.25150       39.28990       -1.58390
C          4.47370       37.23370       -0.19970
C          4.10800       38.45520        0.49190
C          4.98740       38.65530        1.49210
C          5.98400       37.59350        1.45050
C          5.73960       36.80250        0.39720
C          6.75160       36.02410       -0.20820
N          7.61120       35.46570       -0.75270
C          5.03080       39.79890        2.35820
C          4.20210       40.85080        2.29140
C          4.29880       41.96100        3.17560
S          3.09870       43.20880        3.05620
C          3.71080       44.05510        4.40880
C          4.80480       43.42430        4.93740
C          5.19550       42.27300        4.18090
N          6.30120       41.53200        4.45470
C          6.96720       41.96440        5.54710
C          6.51580       43.08420        6.35450
N          7.26770       43.41630        7.51380
C          6.50840       44.15990        8.50450
N          5.43830       43.86190        6.05150
N          8.15530       41.28080        5.91820
C          8.53460       40.18080        5.04450
H          9.68910       29.73840      -26.99570
H         10.27950       28.47330      -24.86000
H          9.48730       32.31250      -26.44610
H         10.58140       32.14450      -21.54810
H         10.99480       28.27020      -19.92280
H         11.78460       31.78880      -18.98540
H          9.57060       30.12670      -17.97930
H         11.66860       33.95570      -14.39710
H          8.61080       32.35940      -11.16390
H          8.47970       29.43990      -11.47890
H          7.41720       30.33930      -10.42290
H          9.12130       30.22300      -10.05470
H          7.39120       29.20080      -15.83190
H          5.85060       28.83760      -15.09190
H          7.20800       27.76290      -14.85620
H          8.02610       27.54140      -11.87900
H          4.79140       30.15110      -12.64570
H          3.59740       25.84720      -10.52270
H          6.42560       22.81450      -11.32250
H          3.81240       22.42270       -9.76540
H          2.17590       23.66650      -11.88600
H         -0.95000       19.51920      -11.19980
H          1.05110       18.46740       -5.82990
H         -1.26980       18.14970       -7.67670
H         -1.40650       17.89800       -5.95300
H         -0.47840       16.78380       -6.92780
H          1.84550       19.32530       -5.11780
H          2.09810       20.62840       -3.98150
H          3.40720       20.10180       -5.01220
H          1.00040       23.81520       -5.25280
H          4.67090       21.89480       -6.18100
H          5.00730       26.76620       -5.34610
H          1.36110       28.84720       -5.02950
H          3.71790       30.29080       -5.08260
H          5.89850       28.72970       -6.29840
H          8.74350       33.02980       -6.66510
H          5.00440       36.32500       -3.65150
H          6.53830       36.43930       -6.20390
H          6.86830       37.51830       -4.86980
H          5.37300       37.66390       -5.76190
H          2.37520       32.54850       -4.72790
H          1.40140       33.96080       -4.39580
H          1.80980       32.85760       -3.10370
H          4.88180       34.72590       -1.45760
H          1.58840       36.26400       -3.58530
H          3.31020       39.06640        0.25750
H          6.75530       37.47020        2.12500
H          5.75770       39.81260        3.09070
H          3.46450       40.85520        1.56960
H          3.30740       44.92960        4.77960
H          8.21240       43.16650        7.63410
H          5.51020       44.31020        8.14970
H          6.97390       45.10860        8.67230
H          6.48190       43.60850        9.42110
H          8.68410       41.53280        6.70940
H          7.81860       40.08950        4.25460
H          8.56230       39.27130        5.60750
H          9.50170       40.37260        4.62880
