274
630_554_01010101.out	Energy:   -8222.1878421
C          3.80950       18.81180      -21.53820
C          4.10420       20.13060      -21.61670
C          5.53600       20.29680      -21.42960
C          6.06600       18.94200      -21.17350
C          5.02310       18.06870      -21.25120
C          7.39970       18.62850      -20.84230
N          8.48050       18.36990      -20.53330
C          6.26830       21.43830      -21.59890
C          7.69570       21.52280      -21.73640
C          8.02560       22.76290      -22.22700
C          6.80390       23.56310      -22.30180
C          5.75330       22.79200      -21.91490
C          4.41080       23.20280      -21.78300
N          3.31960       23.54990      -21.65220
C          9.30890       23.06520      -22.78170
C          9.58400       24.02970      -23.69240
C         10.83480       24.03100      -24.43590
C         11.44100       25.25200      -24.78860
C         12.68820       25.29070      -25.37640
C         13.27120       26.59190      -25.76540
O         12.67330       27.63810      -25.63530
N         14.55770       26.54690      -26.27820
C         15.17460       27.79800      -26.72550
C         15.35220       25.42280      -26.41850
O         16.47500       25.51760      -26.87340
C         14.76100       24.13940      -25.99780
C         13.43230       24.09900      -25.53140
C         12.84910       22.85890      -25.17890
C         11.48100       22.82690      -24.77470
C         10.80920       21.54200      -24.87700
C         11.55660       20.37500      -24.83310
C         13.03780       20.45700      -24.55400
C         13.64250       21.68470      -25.20950
C         14.94530       21.75370      -25.65820
C         15.49730       22.97170      -26.06990
C         13.75720       19.15170      -24.73510
C         13.09930       17.98820      -24.80410
C         11.65590       17.94460      -24.85490
C         10.93340       19.11640      -24.93730
C          9.45060       18.99050      -25.14190
C          8.92470       17.88920      -24.21070
O          7.93200       17.97000      -23.53610
N          9.64110       16.72000      -24.32990
C         10.98280       16.64520      -24.71440
O         11.54490       15.58070      -24.85150
C          9.00770       15.52650      -23.75830
C          8.69930       20.29530      -25.15010
C          9.40320       21.46430      -25.11280
C          7.26900       20.29060      -25.21870
C          6.41830       19.21020      -25.33720
C          5.07120       19.64420      -25.15070
C          5.12980       21.11070      -24.99610
C          6.43780       21.48180      -25.03730
C          4.02820       21.98430      -24.91150
N          3.13670       22.71560      -24.89680
C          3.94080       18.86160      -25.09590
C          2.59220       19.30990      -24.96780
C          1.74080       18.24670      -25.17470
C          2.55550       17.04750      -25.36200
C          3.86980       17.39460      -25.28990
C          4.97160       16.51550      -25.34110
N          5.85970       15.77880      -25.33740
C          0.32420       18.37360      -25.30830
C         -0.49010       17.45760      -25.88610
C         -1.91380       17.64470      -26.10290
C         -2.70350       16.48270      -25.96790
C         -4.07800       16.52960      -25.96470
C         -4.84790       15.27700      -25.82080
O         -4.31880       14.19020      -25.73410
N         -6.22500       15.42170      -25.77740
C         -7.05150       14.21740      -25.66210
C         -6.93200       16.61540      -25.79970
O         -8.14370       16.60830      -25.74490
C         -6.13480       17.85100      -25.90940
C         -4.73190       17.78080      -26.01860
C         -3.96710       18.96480      -26.16190
C         -2.54830       18.88130      -26.34850
C         -1.91600       20.05370      -26.94170
C         -2.54740       21.29020      -26.86280
C         -3.75690       21.43940      -25.97670
C         -4.63850       20.21190      -26.09030
C         -6.01360       20.25560      -25.99210
C         -6.76640       19.08000      -25.92910
C         -4.43740       22.77030      -26.08990
C         -3.86240       23.80820      -26.70810
C         -2.60400       23.66650      -27.39700
C         -2.01840       22.42920      -27.51690
C         -0.88420       22.24050      -28.47760
C         -0.22970       23.51130      -28.98620
O          0.65650       23.48140      -29.81520
N         -0.75750       24.70640      -28.57610
C         -2.00640       24.87310      -27.96740
O         -2.53440       25.96440      -27.92850
C         -0.07500       25.90050      -29.08810
C         -0.00280       21.06340      -28.12620
C         -0.64190       19.98120      -27.58600
C          1.42330       21.02780      -28.28370
C          2.33070       22.06090      -28.16080
C          3.65750       21.53130      -28.15010
C          3.51210       20.06670      -28.25590
C          2.18520       19.78180      -28.35540
C          4.56120       19.13370      -28.18350
N          5.42780       18.38550      -28.04660
C          4.84770       22.22550      -28.10750
C          6.16250       21.67410      -28.12490
C          7.08730       22.69390      -28.21960
C          6.35360       23.95780      -28.23030
C          5.02080       23.69590      -28.14960
C          3.97760       24.64320      -28.14640
N          3.13390       25.42950      -28.14700
C          8.49970       22.56810      -28.38930
C          9.14140       21.37290      -28.30170
C         10.54200       21.11740      -28.53420
C         11.46360       22.18590      -28.59710
C         12.81330       21.97400      -28.76750
C         13.72500       23.12590      -28.91670
O         13.34130       24.27540      -28.82930
N         15.05220       22.81680      -29.15840
C         15.99070       23.90750      -29.44480
C         15.62860       21.55630      -29.07590
O         16.82670       21.41810      -29.20290
C         14.71140       20.42990      -28.82840
C         13.32530       20.65600      -28.74120
C         12.43770       19.56510      -28.58250
C         11.02780       19.79340      -28.64210
C         10.19740       18.63620      -28.92250
C         10.67540       17.36510      -28.61190
C         12.00000       17.21970      -27.92170
C         12.97940       18.27130      -28.37520
C         14.34610       18.07600      -28.44060
C         15.20720       19.14300      -28.70330
C         12.46920       15.81180      -27.75550
C         11.60670       14.78660      -27.84400
C         10.26260       14.99430      -28.30050
C          9.87080       16.22150      -28.79200
C          8.55500       16.29770      -29.50390
C          7.49190       15.48850      -28.73870
O          6.32510       15.78100      -28.69980
N          7.95320       14.31160      -28.20560
C          9.29110       13.90920      -28.11420
O          9.58660       12.78440      -27.78470
C          6.92860       13.47150      -27.57550
C          8.14730       17.68760      -29.91990
C          8.95800       18.74790      -29.62270
C          6.92380       17.87190      -30.64390
C          6.28650       19.07590      -30.88270
C          4.98740       18.82250      -31.41450
C          4.89690       17.36100      -31.59720
C          6.05920       16.81040      -31.15680
C          3.80390       16.67460      -32.16230
N          2.90940       16.10970      -32.62100
C          3.96190       19.73270      -31.56280
C          2.56990       19.44890      -31.70580
C          1.85970       20.62800      -31.59840
C          2.81730       21.72100      -31.45840
C          4.07380       21.20140      -31.42980
C          5.27690       21.92670      -31.33700
N          6.25640       22.53060      -31.25590
C          0.45230       20.84020      -31.53020
C         -0.49780       19.86960      -31.51840
C         -1.89620       20.11440      -31.24590
C         -2.63680       19.05610      -30.67510
C         -3.91920       19.23430      -30.20120
C         -4.69430       18.08550      -29.70480
O         -4.24890       16.95820      -29.64940
N         -5.99770       18.35470      -29.30430
C         -6.83040       17.18290      -29.01570
C         -6.55990       19.61170      -29.13590
O         -7.66760       19.75050      -28.65860
C         -5.73750       20.75270      -29.57630
C         -4.47580       20.53370      -30.16160
C         -3.74780       21.62120      -30.69650
C         -2.52250       21.37420      -31.40190
C         -2.14260       22.38090      -32.37010
C         -2.62510       23.66920      -32.23110
C         -3.32380       24.04980      -30.95050
C         -4.25420       22.93280      -30.53020
C         -5.47250       23.13020      -29.91090
C         -6.22660       22.04310      -29.46280
C         -3.85540       25.45080      -30.91790
C         -3.52970       26.34900      -31.85570
C         -2.76730       25.97070      -33.01910
C         -2.40400       24.66250      -33.21790
C         -1.82410       24.27090      -34.53760
C         -0.98590       25.36740      -35.18960
O         -0.08930       25.12070      -35.95750
N         -1.41620       26.64380      -34.92540
C         -2.34550       27.02300      -33.94740
O         -2.68380       28.18240      -33.85650
C         -0.78740       27.75820      -35.64110
C         -1.17970       22.92340      -34.54540
C         -1.37800       22.04450      -33.55810
H          2.83870       18.35610      -21.66400
H          3.42250       20.93790      -21.82930
H          5.07040       16.99860      -21.11950
H          8.37320       20.69500      -21.60380
H          6.76420       24.59990      -22.59890
H         10.07970       22.33060      -22.56070
H          8.88120       24.83330      -23.88810
H         10.92250       26.18440      -24.59070
H         14.46880       28.61140      -26.57300
H         15.42890       27.70850      -27.78210
H         16.08530       27.97270      -26.15180
H         13.12820       20.68200      -23.47200
H         15.56850       20.86840      -25.68800
H         16.52050       23.00730      -26.42690
H         14.83900       19.17340      -24.69650
H         13.62260       17.03930      -24.84410
H          9.29720       18.54340      -26.13860
H          7.98880       15.45990      -24.14330
H          8.98200       15.61260      -22.67100
H          9.58600       14.65480      -24.05710
H          8.87380       22.39630      -25.25800
H          6.68910       18.19210      -25.55240
H          6.80400       22.49240      -24.94700
H          2.29210       20.33320      -24.81450
H          2.16420       16.05210      -25.50640
H         -0.08790       19.33380      -25.00760
H         -0.09850       16.47620      -26.13760
H         -2.21370       15.52180      -25.84700
H         -6.40180       13.34500      -25.66450
H         -7.74230       14.17930      -26.50510
H         -7.62260       14.26300      -24.73420
H         -3.38320       21.39490      -24.93460
H         -6.53640       21.20310      -25.96240
H         -7.84840       19.12650      -25.88610
H         -5.37990       22.88790      -25.57040
H         -4.32770       24.78730      -26.72860
H         -1.38100       21.88400      -29.40370
H          0.98670       25.81920      -28.85140
H         -0.50700       26.77720      -28.61100
H         -0.20310       25.95820      -30.17010
H         -0.09560       19.05330      -27.50660
H          2.10920       23.10230      -28.01430
H          1.76130       18.79880      -28.49010
H          6.38070       20.62050      -28.11100
H          6.81720       24.93010      -28.29670
H          9.03800       23.47310      -28.65160
H          8.55810       20.50940      -27.99680
H         11.11100       23.20940      -28.53030
H         15.45320       24.85190      -29.41190
H         16.42240       23.74830      -30.43350
H         16.78680       23.90350      -28.70110
H         11.79880       17.53550      -26.86930
H         14.76830       17.09000      -28.29070
H         16.27560       18.97720      -28.78610
H         13.48420       15.65850      -27.41330
H         11.89650       13.77290      -27.59250
H          8.65910       15.70960      -30.43090
H          6.14440       13.26110      -28.30280
H          6.50100       14.01510      -26.73040
H          7.39400       12.54750      -27.23990
H          8.68860       19.72570      -30.00310
H          6.63870       20.05360      -30.59770
H          6.31360       15.76360      -31.18820
H          2.15550       18.45910      -31.80650
H          2.54070       22.76040      -31.37360
H          0.15020       21.87570      -31.41410
H         -0.20050       18.82610      -31.56860
H         -2.19060       18.06850      -30.61410
H         -7.14810       16.73090      -29.95670
H         -7.69970       17.49800      -28.44230
H         -6.24340       16.45940      -28.45130
H         -2.54130       24.03470      -30.16910
H         -5.86440       24.13090      -29.77680
H         -7.20200       22.20160      -29.01620
H         -4.42070       25.73760      -30.03980
H         -3.84690       27.38350      -31.78750
H         -2.67260       24.19870      -35.24310
H         -0.11770       27.35490      -36.39750
H         -0.23250       28.37580      -34.93400
H         -1.56920       28.35960      -36.10560
H         -0.59430       22.67930      -35.42400
H         -0.96660       21.04630      -33.63570
