134
630_457_01010101.out	Energy:   -6509.2124881
C          4.82680       13.75480       17.28980
C          3.92030       13.26370       16.41310
C          3.04790       14.34510       15.98820
C          3.52440       15.54480       16.70560
C          4.58540       15.17310       17.47670
C          2.97720       16.83880       16.61290
N          2.53750       17.90300       16.54940
C          2.00150       14.27730       15.10850
C          1.14260       15.34910       14.68910
C          0.20910       14.86200       13.80230
C          0.46010       13.43160       13.62870
C          1.51890       13.06990       14.39730
C          2.05280       11.76910       14.50110
N          2.46340       10.69400       14.56660
C         -0.85390       15.55030       13.14840
C         -1.13410       16.87340       13.30350
C         -2.22970       17.52600       12.68030
S         -3.34220       16.70720       11.64370
C         -4.30350       18.13540       11.42630
C         -3.75930       19.20900       12.11910
C         -2.58450       18.86890       12.83300
C         -1.82380       19.74960       13.64220
N         -1.17340       20.41740       14.31700
C         -4.31720       20.60280       12.09810
F         -4.66160       20.97260       10.85610
F         -5.42170       20.70290       12.85740
F         -3.44670       21.50020       12.54890
C         -5.48380       18.02910       10.62780
C         -5.75730       16.98740        9.76610
C         -7.05440       17.17030        9.19720
C         -7.57970       18.42010        9.78490
C         -6.63440       18.92760       10.62170
C         -8.84190       18.99020        9.52320
N         -9.87460       19.46120        9.32030
C         -7.70400       16.34540        8.30350
C         -9.03610       16.47560        7.81140
C         -9.31450       15.41870        6.96590
C         -8.11600       14.58600        6.88380
C         -7.15480       15.11690        7.68380
C         -5.86040       14.59630        7.88380
N         -4.80780       14.15370        8.04400
C        -10.53050       15.10140        6.29880
C        -11.69870       15.77730        6.49530
C        -12.95930       15.46340        5.92170
S        -14.35850       16.28610        6.51510
C        -15.42770       15.37940        5.49760
C        -14.70870       14.49620        4.69890
C        -13.31330       14.53310        4.93680
C        -12.36790       13.72770        4.25410
N        -11.57590       13.08630        3.71790
C        -15.33810       13.59400        3.67380
F        -16.17350       14.27580        2.87830
F        -14.43700       13.01110        2.88980
F        -16.04920       12.61790        4.25820
C        -16.83280       15.59260        5.63360
C        -17.89430       14.87200        5.12730
C        -19.11540       15.41510        5.63640
C        -18.73490       16.56400        6.48240
C        -17.37860       16.65650        6.47340
C        -19.61660       17.42230        7.16980
N        -20.32100       18.13510        7.73970
C        -20.39170       14.93100        5.44170
C        -21.59540       15.38180        6.05990
C        -22.64390       14.57400        5.66200
C        -22.11290       13.58290        4.72580
C        -20.77690       13.78300        4.58790
C        -19.91790       13.03200        3.75820
N        -19.24860       12.40060        3.06450
C        -23.98290       14.66770        6.12310
C        -24.99190       13.82390        5.76230
C        -26.30880       13.89500        6.28040
S        -26.80450       15.06530        7.45000
C        -28.41020       14.41190        7.53210
C        -28.55080       13.33360        6.66480
C        -27.36430       13.03560        5.95630
C        -27.19220       11.98780        5.01760
N        -26.97980       11.15900        4.24750
C        -29.82540       12.56060        6.47330
F        -30.85520       13.37880        6.21410
F        -29.74210       11.69980        5.46360
F        -30.13910       11.85920        7.57200
C        -29.33580       15.00970        8.44020
C        -30.58540       14.58790        8.84080
C        -31.10860       15.51240        9.80100
C        -30.08180       16.56130        9.96330
C        -29.03390       16.24700        9.15630
C        -30.16350       17.69020       10.80340
N        -30.20810       18.62090       11.48210
C        -32.31380       15.43960       10.46310
C        -32.83050       16.35050       11.43560
C        -34.06220       15.90670       11.86770
C        -34.36720       14.66610       11.15310
C        -33.33820       14.37860       10.31530
C        -33.26790       13.25880        9.46040
N        -33.24640       12.33200        8.77590
C        -34.88360       16.54420       12.84030
C        -36.08660       16.07590       13.26560
C        -36.89700       16.72030       14.24360
S        -36.44740       18.20760       15.00950
C        -37.88190       18.21880       15.94260
C        -38.67970       17.14090       15.69230
C        -38.12530       16.26580       14.71310
C        -38.73560       15.07200       14.26090
N        -39.20330       14.09430       13.87310
C        -39.99570       16.89580       16.36940
F        -40.27540       17.87490       17.23700
F        -41.00010       16.83810       15.48940
F        -39.99340       15.74440       17.04870
H          5.61320       13.20660       17.78610
H          3.83800       12.24610       16.06910
H          5.16230       15.81430       18.12560
H          1.23150       16.36760       15.02970
H         -0.12140       12.78740       12.98660
H         -1.48560       14.95540       12.49370
H         -0.51780       17.49360       13.94790
H         -5.09740       16.16260        9.55260
H         -6.72520       19.82600       11.20820
H         -9.70960       17.27320        8.07790
H         -8.03750       13.69140        6.28500
H        -10.50570       14.24310        5.63700
H        -11.71030       16.61080        7.19200
H        -17.84200       14.00930        4.48720
H        -16.77910       17.39110        6.98890
H        -21.66570       16.20340        6.75380
H        -22.69710       12.82230        4.23110
H        -24.19490       15.46220        6.83440
H        -24.80960       13.02490        5.04990
H        -31.10200       13.70170        8.51730
H        -28.12030       16.80940        9.03830
H        -32.32870       17.24120       11.77640
H        -35.26690       14.08380       11.27880
H        -34.49940       17.46900       13.26340
H        -36.49170       15.15270       12.86180
H        -38.08070       19.01780       16.63770
