142
630_874_01010101.out	Energy:   -5406.6708134
C         -8.19780       -3.38260       -1.42510
C         -8.17200       -2.07550       -1.10890
C         -7.41180       -1.37110       -2.14960
C         -7.00340       -2.41400       -3.10740
C         -7.47680       -3.58950       -2.65900
C         -6.25150       -2.28200       -4.29680
N         -5.63320       -2.18120       -5.27440
C         -7.15490       -0.04580       -2.17670
C         -6.38110        0.65910       -3.20230
C         -6.30800        1.96420       -2.87200
C         -7.04790        2.15250       -1.63200
C         -7.55660        0.98530       -1.21330
C         -8.33990        0.86660       -0.04340
N         -8.98180        0.79070        0.91870
C         -5.60910        2.95250       -3.65650
C         -5.53940        4.24430       -3.30280
C         -4.85700        5.20760       -4.08710
S         -5.37440        6.84570       -4.00880
C         -4.18970        7.34850       -5.11750
C         -3.38890        6.31210       -5.53290
C         -3.77690        5.07620       -4.94200
C         -4.07110        8.69210       -5.55270
C         -4.01020        9.82650       -5.93470
C         -3.97130       11.15220       -6.41940
C         -4.69070       12.12370       -5.84400
C         -4.71380       13.47840       -6.33120
C         -5.42670       14.46830       -5.75320
C         -5.21880       15.70270       -6.51790
C         -4.32770       15.33540       -7.62470
C         -4.03690       14.03210       -7.49430
C         -3.81610       16.13250       -8.67070
N         -3.38990       16.77550       -9.53860
C         -5.74160       16.90960       -6.22090
C         -5.53180       18.13820       -6.98390
C         -6.15410       19.14890       -6.34820
C         -6.83140       18.60670       -5.18300
C         -6.59800       17.28860       -5.09190
C         -7.11590       16.48630       -4.05220
N         -7.54690       15.84020       -3.19000
C         -6.16650       20.50020       -6.83550
C         -6.27850       21.56050       -6.02310
C         -6.26910       22.89070       -6.51900
S         -6.39210       24.19240       -5.39970
C         -6.26920       25.35820       -6.62920
C         -6.16860       24.79540       -7.87750
C         -6.16910       23.37520       -7.81290
C         -6.25890       26.74880       -6.37110
C         -6.22200       27.92430       -6.13180
C         -6.14130       29.29650       -5.82170
C         -7.20200       30.10510       -5.93680
C         -7.13810       31.50810       -5.62570
C         -6.35410       32.03310       -4.66030
C         -6.53520       33.48090       -4.64240
C         -7.56720       33.75800       -5.65110
C         -7.91520       32.58720       -6.21120
C         -8.12220       34.99820       -6.03350
N         -8.58100       36.01500       -6.35440
C         -5.84670       34.33530       -3.85930
C         -6.00930       35.78720       -3.84060
C         -5.13170       36.30770       -2.96090
C         -4.36950       35.21210       -2.38210
C         -4.78500       34.04200       -2.88830
C         -4.22960       32.80210       -2.50180
N         -3.76370       31.79070       -2.17400
C         -5.01970       37.71760       -2.69300
C         -4.14320       38.22740       -1.81570
C         -4.03010       39.62420       -1.60460
S         -2.50970       40.26770       -1.12570
C         -3.10280       41.86130       -1.12800
C         -4.43900       41.91970       -1.44060
C         -4.97390       40.62980       -1.71510
C         -2.28390       42.98460       -0.84310
C         -1.55020       43.90450       -0.62100
C         -0.62310       44.94190       -0.36530
C         -0.76190       46.15960       -0.90350
C          0.18900       47.21560       -0.67760
C         -0.12950       48.52630       -0.69590
C          1.08740       49.30510       -0.44790
C          2.17200       48.31900       -0.33690
C          1.62620       47.10120       -0.47690
C          3.55170       48.52330       -0.10950
N          4.68580       48.67470        0.08550
C          1.14940       50.64730       -0.33390
C          2.36690       51.41630       -0.09220
C          2.03660       52.71720       -0.00190
C          0.60680       52.84850       -0.21030
C          0.06380       51.63570       -0.40390
C         -1.31820       51.43110       -0.60910
N         -2.45560       51.27140       -0.77580
C          2.97940       53.77620        0.19960
C          3.80730       53.85860        1.25350
C          4.71830       54.94420        1.39670
S          5.41610       55.72050        0.02490
C          6.30870       56.79980        0.97930
C          6.11330       56.58620        2.32240
C          5.20340       55.51120        2.56400
C          7.15570       57.78660        0.40460
C          7.85480       58.59140       -0.14130
C          8.67410       59.53390       -0.81770
C          8.92820       59.42330       -2.12500
H         -8.66020       -4.12150       -0.87270
H         -8.60960       -1.64330       -0.28020
H         -7.34520       -4.50060       -3.12540
H         -5.96090        0.22720       -4.04010
H         -7.16390        3.05510       -1.14540
H         -5.14290        2.65280       -4.52710
H         -5.99840        4.54730       -2.42960
H         -2.60230        6.41670       -6.19270
H         -3.30350        4.17890       -5.13090
H         -3.37690       11.37660       -7.23270
H         -5.25540       11.89060       -5.01220
H         -6.01910       14.37260       -4.91350
H         -3.42140       13.49880       -8.12810
H         -4.99640       18.21780       -7.86260
H         -7.40660       19.15380       -4.52360
H         -6.08600       20.66100       -7.85170
H         -6.37440       21.40530       -5.00740
H         -6.10100       25.33620       -8.75390
H         -6.10200       22.76770       -8.64450
H         -5.24280       29.68760       -5.49810
H         -8.09770       29.70760       -6.26040
H         -5.72910       31.49830       -4.03710
H         -8.62850       32.47160       -6.94800
H         -6.68430       36.32450       -4.40690
H         -3.61790       35.31980       -1.68320
H         -5.64270       38.36600       -3.19950
H         -3.53600       37.58680       -1.28100
H         -4.98830       42.79280       -1.47250
H         -5.96000       40.46250       -1.96950
H          0.18190       44.75490        0.25280
H         -1.58100       46.34790       -1.50240
H         -1.07160       48.91540       -0.85740
H          2.14950       46.21230       -0.44680
H          3.31900       51.02780       -0.00540
H          0.08590       53.73940       -0.20990
H          3.02540       54.52370       -0.51050
H          3.78300       53.12050        1.97440
H          6.56900       57.13620        3.06730
H          4.93590       55.19110        3.50790
H          9.08180       60.32060       -0.28860
H          8.52600       58.64080       -2.66450
H          9.52660       60.12040       -2.59520
