154
630_725_01010101.out	Energy:   -5914.3417641
C          5.13920        2.21550        5.07740
C          4.36740        2.45990        3.99500
C          3.63340        3.69730        4.21360
C          4.05510        4.17780        5.54730
C          4.95140        3.28230        6.04600
C          3.62200        5.35930        6.17990
N          3.28640        6.32650        6.71010
C          2.73580        4.29200        3.37390
C          1.98640        5.50180        3.60760
C          1.18990        5.75800        2.51990
C          1.41560        4.70030        1.53460
C          2.32560        3.82300        2.03110
C          2.79670        2.66710        1.37400
N          3.16500        1.72770        0.81720
C          0.28400        6.85890        2.40030
C         -0.44990        7.12000        1.29310
C         -1.36170        8.22400        1.11740
C         -1.57160        8.77070       -0.16560
C         -0.97790        8.35110       -1.46560
O         -0.20280        7.48280       -1.70410
O         -1.50250        9.18320       -2.42670
C         -2.36690       10.10630       -1.89340
O         -2.94560       10.91570       -2.54090
C         -2.40520        9.85470       -0.42210
C         -3.15950       10.49040        0.57530
C         -2.98610        9.92660        1.85050
C         -2.13030        8.85690        2.11850
C         -2.29480        8.52520        3.56670
O         -1.84070        7.63490        4.20800
O         -3.15000        9.46100        4.09420
C         -3.59850       10.34560        3.14840
O         -4.31600       11.25830        3.39470
C         -4.05840       11.60300        0.31360
C         -5.32940       11.74700        0.78750
C         -5.87020       13.00000        0.31140
C         -4.80110       13.61560       -0.49900
C         -3.73790       12.76780       -0.50840
C         -4.87390       14.86620       -1.14640
N         -4.92030       15.89310       -1.66700
C         -7.10910       13.51240        0.58480
C         -7.63130       14.80090        0.21020
C         -8.89460       14.94360        0.72920
C         -9.23110       13.71030        1.44710
C         -8.18100       12.85540        1.36880
C         -8.13930       11.54980        1.90300
N         -8.13480       10.47780        2.32560
C         -9.72790       16.09770        0.59220
C        -10.95820       16.19370        1.15150
C        -11.85250       17.32370        1.11160
C        -11.94190       18.31710        0.11250
C        -11.26320       18.42240       -1.21500
O        -10.46010       17.71260       -1.72650
O        -11.76990       19.53840       -1.83530
C        -12.72150       20.16610       -1.07510
O        -13.30540       21.13930       -1.42390
C        -12.84860       19.37660        0.18450
C        -13.77000       19.55430        1.22850
C        -13.69740       18.55410        2.21210
C        -12.78850       17.50370        2.15340
C        -12.97690       16.68560        3.38600
O        -12.41740       15.69820        3.73790
O        -13.96580       17.29530        4.11780
C        -14.44980       18.42050        3.49790
O        -15.28950       19.11530        3.96670
C        -14.74110       20.63390        1.27580
C        -16.06380       20.50520        1.58660
C        -16.69070       21.80530        1.52170
C        -15.61710       22.75010        1.15620
C        -14.46840       22.04090        0.99240
C        -15.76900       24.14160        0.98340
N        -15.88870       25.27850        0.83860
C        -18.00990       22.09020        1.74840
C        -18.63560       23.38640        1.76340
C        -19.97560       23.23380        2.01740
C        -20.25010       21.80220        2.16240
C        -19.09140       21.11230        2.01700
C        -18.95090       19.70940        2.06380
N        -18.86080       18.56060        2.08470
C        -20.99490       24.23600        2.10950
C        -20.74350       25.56490        2.13880
C        -21.73460       26.61140        2.23670
C        -21.43680       27.80800        2.91760
C        -20.17480       28.19570        3.60960
O        -19.16570       27.58550        3.74570
O        -20.37370       29.46030        4.11110
C        -21.63120       29.93450        3.83320
O        -22.01540       31.00940        4.15830
C        -22.33570       28.85770        3.07400
C        -23.62650       28.84470        2.52330
C        -23.91910       27.66800        1.81380
C        -23.03250       26.59750        1.68500
C        -23.70810       25.57610        0.82760
O        -23.30610       24.54160        0.40480
O        -24.96620       26.05290        0.55850
C        -25.18560       27.28610        1.11800
O        -26.21780       27.86580        1.03850
C        -24.55820       29.95350        2.65060
C        -25.31130       30.50140        1.65390
C        -26.08940       31.59210        2.19810
C        -25.75740       31.64290        3.63550
C        -24.83190       30.67950        3.88870
C        -26.31320       32.52940        4.58090
N        -26.77070       33.23980        5.36450
C        -26.94950       32.40710        1.51450
C        -27.76330       33.46980        2.04690
C        -28.49830       34.02700        1.03090
C        -28.15880       33.32630       -0.21160
C        -27.24110       32.36560        0.06230
C        -26.64050       31.50520       -0.88140
N        -26.14590       30.82900       -1.67250
C        -29.42330       35.10990        1.17020
C        -30.14850       35.61080        0.14290
C        -31.12730       36.66990        0.21350
C        -31.15880       37.74420        1.12940
C        -30.18460       38.17770        2.17800
O        -29.14430       37.70490        2.50120
O        -30.69040       39.32180        2.74820
C        -31.87790       39.70660        2.17870
O        -32.49990       40.65980        2.50680
C        -32.17260       38.70490        1.11190
C        -33.22790       38.70010        0.21040
C        -33.19200       37.66400       -0.71210
C        -32.18710       36.70040       -0.71820
C        -32.48600       35.76620       -1.84110
O        -31.89560       34.80160       -2.20510
O        -33.63650       36.22100       -2.44180
C        -34.12950       37.35020       -1.83280
O        -35.11010       37.91840       -2.17570
H          5.79930        1.37480        5.22860
H          4.28390        1.85420        3.10800
H          5.45190        3.33890        7.00060
H          2.04540        6.09700        4.50450
H          0.92890        4.63510        0.57370
H          0.23300        7.51460        3.26180
H         -0.30890        6.50600        0.40960
H         -5.86300       11.05000        1.41070
H         -2.79570       12.92160       -1.00910
H         -7.09630       15.53510       -0.37010
H        -10.16640       13.52160        1.95100
H         -9.30170       16.92280        0.03420
H        -11.31270       15.37120        1.76350
H        -16.57730       19.59110        1.83130
H        -13.50140       22.43390        0.72360
H        -18.11170       24.31420        1.60110
H        -21.22890       21.38980        2.35440
H        -22.01140       23.86870        2.19120
H        -19.71430       25.90930        2.16940
H        -25.32270       30.19970        0.62050
H        -24.38290       30.45210        4.84190
H        -27.78630       33.76510        3.08340
H        -28.57440       33.54940       -1.18200
H        -29.53830       35.50100        2.17420
H        -30.06500       35.14480       -0.83340
H        -34.00480       39.45410        0.21900
