170
630_213_01010101.out	Energy:   -5226.7865521
C          7.13610      -10.05770        2.76570
C          7.64680      -10.55130        1.62310
C          6.98380      -11.83160        1.34880
C          6.05150      -12.04150        2.46850
C          6.14540      -10.97510        3.28160
C          5.22070      -13.15430        2.73150
N          4.54550      -14.07100        2.95890
C          7.24230      -12.63710        0.29800
C          6.63500      -13.94220        0.04400
C          7.24150      -14.49940       -1.02300
C          8.22980      -13.54940       -1.52720
C          8.17420      -12.41380       -0.81210
C          8.72990      -11.19270       -1.25840
N          9.14310      -10.18270       -1.65790
C          6.69990      -15.63500       -1.72740
C          7.41360      -16.38870       -2.57090
C          6.85080      -17.30150       -3.53290
C          7.49600      -18.43190       -3.90070
F          8.63460      -18.89870       -3.36350
C          6.82110      -19.12570       -4.96300
C          5.71680      -18.43690       -5.27770
C          5.66160      -17.22850       -4.44030
C          4.47320      -16.64630       -4.18290
C          4.06330      -15.22300       -4.12010
C          2.78420      -15.24420       -3.66640
C          2.35150      -16.59900       -3.47280
C          3.30290      -17.45590       -3.83800
F          1.11340      -16.92160       -3.08070
C          4.58730      -14.05690       -4.82430
C          4.10230      -12.81000       -4.67190
C          4.50070      -11.63120       -5.40000
C          4.19050      -10.38270       -4.97980
C          4.85660       -9.41910       -5.85690
C          5.39990      -10.21630       -6.96600
C          5.18340      -11.51150       -6.67970
C          5.96210       -9.77960       -8.18690
N          6.43900       -9.45430       -9.19410
C          4.98000       -8.09660       -5.61830
C          5.79460       -7.18110       -6.41220
C          5.61430       -5.92820       -5.94860
C          4.76500       -5.99850       -4.77490
C          4.40500       -7.27310       -4.54630
C          3.61170       -7.65450       -3.44150
N          2.94840       -7.91900       -2.52520
C          6.33040       -4.80110       -6.47290
C          5.93040       -3.51630       -6.44060
C          6.72120       -2.44410       -7.00910
C          8.05700       -2.55530       -7.22240
F          8.85010       -3.57240       -6.84780
C          8.56730       -1.52630       -8.07150
C          7.55780       -0.70090       -8.36780
C          6.35400       -1.12570       -7.59620
C          5.27880       -0.30520       -7.47600
C          4.02340       -0.28200       -6.62850
C          3.37400        0.85150       -7.01110
C          4.08460        1.53490       -8.04390
C          5.21250        0.89830       -8.33790
F          3.68630        2.68780       -8.60110
C          3.57210       -1.01660       -5.42050
C          2.29390       -1.05530       -4.97080
C          1.69660       -1.71210       -3.80260
C          1.23120       -2.98590       -3.81190
C          0.36370       -3.22680       -2.62610
C          0.24530       -1.90520       -1.99240
C          1.09940       -1.06680       -2.62250
C         -0.76230       -1.46320       -1.08370
N         -1.62780       -1.07230       -0.40900
C         -0.20200       -4.41210       -2.27030
C         -1.13760       -4.70350       -1.15110
C         -1.54070       -5.99870       -1.23810
C         -0.78950       -6.61270       -2.31920
C         -0.04660       -5.69340       -2.95960
C          0.65440       -6.01020       -4.13540
N          1.19420       -6.28080       -5.13460
C         -2.68570       -6.60890       -0.57180
C         -3.05480       -7.89370       -0.76330
C         -4.34860       -8.43010       -0.41970
C         -4.52680       -9.43500        0.47000
F         -3.55830      -10.14940        1.06370
C         -5.90860       -9.58240        0.84260
C         -6.62080       -8.66450        0.17220
C         -5.71050       -7.99080       -0.78930
C         -6.18920       -7.30850       -1.85960
C         -5.61550       -6.86020       -3.18990
C         -6.69460       -6.38910       -3.87200
C         -7.87300       -6.42030       -3.06880
C         -7.61810       -6.93240       -1.87600
F         -9.06160       -5.95360       -3.48370
C         -4.30640       -6.97100       -3.87500
C         -4.03520       -6.44720       -5.09790
C         -2.84890       -6.54070       -5.94890
C         -2.52020       -5.61210       -6.89250
C         -1.45220       -6.14070       -7.77890
C         -1.25520       -7.52560       -7.29880
C         -2.04330       -7.72350       -6.22470
C         -0.62780       -8.59260       -7.98060
N         -0.17100       -9.48710       -8.56320
C         -0.86870       -5.54390       -8.85970
C          0.17560       -6.16770       -9.74030
C          0.32600       -5.42290      -10.85800
C         -0.49500       -4.22920      -10.68780
C         -1.16590       -4.26840       -9.51930
C         -2.03600       -3.23250       -9.06880
N         -2.74140       -2.38730       -8.71010
C          1.06090       -5.91510      -12.02330
C          2.08450       -5.35350      -12.70070
C          2.75470       -5.98680      -13.84110
C          2.09410       -6.40910      -14.94680
F          0.76340       -6.39630      -15.12110
C          2.97990       -6.79010      -16.02050
C          4.24200       -6.56600      -15.61720
C          4.20320       -6.11040      -14.22660
C          5.33500       -6.00750      -13.49710
C          5.50460       -5.85650      -12.03930
C          6.83450       -5.89240      -11.79780
C          7.54220       -6.00250      -13.04250
C          6.69090       -6.08520      -14.06610
F          8.87860       -6.02420      -13.13370
C          4.54540       -5.91290      -10.97160
C          4.22300       -7.04140      -10.32990
H          7.40890       -9.16460        3.20490
H          8.37570      -10.10800        1.04230
H          5.59430      -10.83310        4.14250
H          5.86940      -14.36640        0.59070
H          8.87380      -13.72430       -2.31440
H          5.70920      -15.87920       -1.57250
H          8.44190      -16.31070       -2.52950
H          7.13360      -20.00350       -5.40680
H          5.02030      -18.70840       -5.98920
H          2.20690      -14.40790       -3.48670
H          3.23010      -18.48480       -3.87140
H          5.37490      -14.19600       -5.47660
H          3.36750      -12.68490       -3.95820
H          3.58620      -10.14960       -4.17650
H          5.46050      -12.30450       -7.27920
H          6.40730       -7.44900       -7.19830
H          4.47950       -5.19000       -4.20060
H          7.24110       -4.99430       -6.91820
H          5.02830       -3.28700       -5.99490
H          9.54200       -1.43580       -8.39830
H          7.60390        0.09660       -9.02110
H          2.48170        1.17550       -6.60630
H          5.91340        1.18830       -9.03760
H          4.28370       -1.53630       -4.88330
H          1.62260       -0.53020       -5.55260
H          1.44740       -3.68770       -4.53710
H          1.30490       -0.10280       -2.31650
H         -1.43290       -4.03110       -0.42600
H         -0.82170       -7.61520       -2.56190
H         -3.24100       -6.03050        0.07780
H         -2.36430       -8.53510       -1.18390
H         -6.28600      -10.27370        1.50940
H         -7.62440       -8.46200        0.30150
H         -6.66430       -6.05200       -4.84690
H         -8.29100       -7.04770       -1.10210
H         -3.55070       -7.48020       -3.39060
H         -4.80150       -5.88340       -5.49790
H         -2.95090       -4.67810       -6.97790
H         -2.07280       -8.59460       -5.67210
H          0.69760       -7.03150       -9.52530
H         -0.55430       -3.45780      -11.37080
H          0.74920       -6.83120      -12.38200
H          2.41490       -4.42380      -12.39830
H          2.69420       -7.16830      -16.93720
H          5.09170       -6.69310      -16.18890
H          7.27260       -5.84770      -10.86450
H          6.93530       -6.18460      -15.06380
H          4.08080       -5.03720      -10.68460
H          4.67150       -7.93210      -10.59530
H          3.52570       -7.02130       -9.56930
