170
630_966_01010101.out	Energy:   -6223.8321910
C          6.66140        3.41010       -6.02280
C          5.81770        3.75380       -5.02420
C          4.83050        4.68680       -5.54610
C          5.16870        4.86330       -6.97480
C          6.26110        4.09480       -7.24010
C          4.47400        5.66620       -7.90030
N          3.91480        6.31240       -8.67450
C          3.80710        5.28300       -4.86620
C          2.85000        6.23110       -5.37940
C          1.98730        6.59270       -4.37490
C          2.37190        5.86520       -3.16500
C          3.45120        5.08910       -3.44220
C          4.11030        4.24050       -2.52840
N          4.63260        3.55490       -1.76330
C          0.91460        7.52980       -4.50520
C          0.05210        7.83720       -3.50730
C         -1.06150        8.74820       -3.59740
C         -2.20960        8.54650       -2.80180
C         -2.47570        7.42780       -1.85550
O         -1.77600        6.52570       -1.52430
O         -3.75550        7.60100       -1.39070
C         -4.35280        8.71360       -1.92940
O         -5.47670        9.01880       -1.69520
C         -3.34400        9.35440       -2.82670
C         -3.44660       10.48640       -3.66190
C         -2.29830       10.68980       -4.45550
C         -1.16170        9.88520       -4.42800
C         -0.14930       10.53780       -5.31280
O          0.98060       10.24650       -5.53530
O         -0.75030       11.64860       -5.85360
C         -2.03280       11.81310       -5.39680
O         -2.73690       12.71170       -5.72860
C         -4.56240       11.39550       -3.75660
C         -5.41030       11.72740       -2.75350
C         -6.46920       12.67710       -2.89080
C         -7.28300       13.11730       -1.87390
C         -8.21920       14.07270       -2.39680
C         -7.92020       14.18000       -3.84310
C         -6.87860       13.35490       -4.12210
C         -8.58770       15.00720       -4.77030
N         -9.11770       15.67900       -5.54230
C         -9.17910       14.76940       -1.70610
C        -10.11380       15.72420       -2.23230
C        -10.87760       16.22480       -1.20440
C        -10.44290       15.58110        0.03590
C         -9.44020       14.71070       -0.25020
C         -8.75530       13.90500        0.68320
N         -8.20510       13.25820        1.46240
C        -11.90090       17.21180       -1.34380
C        -12.56160       17.77270       -0.30220
C        -13.54290       18.82410       -0.40100
C        -14.42920       19.05270       -1.47520
C        -14.72600       18.22600       -2.68510
O        -14.26950       17.18650       -3.03460
O        -15.71640       18.87680       -3.37760
C        -16.11980       20.02530       -2.74300
O        -16.97500       20.73850       -3.15590
C        -15.30250       20.13570       -1.50210
C        -15.41660       21.10280       -0.48120
C        -14.55190       20.85800        0.60680
C        -13.67770       19.77300        0.63410
C        -12.88470       19.86440        1.89080
O        -12.04270       19.14110        2.31600
O        -13.29820       21.00350        2.53480
C        -14.27550       21.66560        1.83370
O        -14.73870       22.69770        2.19730
C        -16.32730       22.21090       -0.63000
C        -16.97300       22.85740        0.37010
C        -17.83980       23.97680        0.16510
C        -18.08930       24.67710       -0.99190
C        -18.97100       25.77170       -0.69770
C        -19.27580       25.67250        0.74820
C        -18.59560       24.60850        1.24670
C        -20.13640       26.51980        1.47600
N        -20.84510       27.19270        2.08710
C        -19.41030       26.74470       -1.56070
C        -20.22550       27.88460       -1.24790
C        -20.40920       28.63620       -2.38440
C        -19.71140       27.96910       -3.48460
C        -19.10890       26.84980       -3.00660
C        -18.32360       25.94960       -3.75670
N        -17.67560       25.23140       -4.38330
C        -21.12000       29.87380       -2.44580
C        -21.32620       30.58030       -3.58280
C        -22.04050       31.83020       -3.68310
C        -22.10680       32.84910       -2.70880
C        -21.40650       32.95360       -1.39350
O        -20.59700       32.24140       -0.89480
O        -21.84080       34.11370       -0.80520
C        -22.71510       34.80290       -1.60600
O        -23.25720       35.80120       -1.25860
C        -22.83370       34.03080       -2.87940
C        -23.57710       34.32410       -4.04270
C        -23.51530       33.29780       -5.00670
C        -22.77350       32.13570       -4.84730
C        -22.94730       31.32340       -6.08420
O        -22.49360       30.26220       -6.36630
O        -23.77350       32.04210       -6.91490
C        -24.15800       33.23450       -6.34940
O        -24.87140       34.01720       -6.88830
C        -24.34850       35.51590       -4.30150
C        -24.06530       36.76040       -3.84840
C        -24.85870       37.91650       -4.12260
C        -24.57440       39.19160       -3.69450
C        -25.63570       40.07270       -4.09490
C        -26.60090       39.22980       -4.83620
C        -26.12690       37.95720       -4.85230
C        -27.79100       39.67760       -5.44660
N        -28.76360       40.02720       -5.95640
C        -25.75660       41.41170       -3.82070
C        -26.87390       42.26780       -4.10900
C        -26.61520       43.52770       -3.62500
C        -25.28040       43.51550       -3.02360
C        -24.76380       42.26410       -3.12830
C        -23.48840       41.85660       -2.68470
N        -22.43970       41.54400       -2.32290
C        -27.51610       44.63700       -3.67840
C        -27.21680       45.87430       -3.21870
C        -28.07420       47.03610       -3.26280
C        -29.48170       47.06110       -3.17730
C        -30.44350       45.94420       -2.93880
O        -30.24620       44.79110       -2.73100
O        -31.70100       46.49150       -2.96140
C        -31.67180       47.85050       -3.14890
O        -32.65390       48.51110       -3.23840
C        -30.23140       48.24130       -3.23030
C        -29.65990       49.51680       -3.38100
C        -28.25880       49.48620       -3.47290
C        -27.50860       48.31910       -3.39670
C        -26.07450       48.70440       -3.51750
O        -25.10080       48.02310       -3.50710
O        -26.04270       50.07140       -3.65320
C        -27.30360       50.61960       -3.63680
O        -27.51540       51.78290       -3.74150
C        -30.37100       50.78890       -3.43900
C        -31.45820       51.10820       -2.74210
H          7.50430        2.73860       -5.95940
H          5.85100        3.41540       -4.00190
H          6.76040        3.99610       -8.19190
H          2.83210        6.59840       -6.39270
H          1.87200        5.94080       -2.21160
H          0.80290        7.97530       -5.48690
H          0.13310        7.31170       -2.56170
H         -4.65250       11.90390       -4.71070
H         -5.28730       11.30250       -1.76400
H         -7.23410       12.80250       -0.84420
H         -6.42220       13.21260       -5.08950
H        -10.19470       16.00030       -3.27100
H        -10.85990       15.77250        1.01260
H        -12.09780       17.53890       -2.35840
H        -12.28670       17.49510        0.70970
H        -16.53540       22.49190       -1.65770
H        -16.86570       22.52590        1.39620
H        -17.67830       24.47320       -1.96700
H        -18.59560       24.26240        2.26910
H        -20.61170       28.11630       -0.26870
H        -19.68150       28.32230       -4.50380
H        -21.52080       30.22610       -1.50220
H        -21.00870       30.16230       -4.53270
H        -25.18060       35.37660       -4.98420
H        -23.17930       36.93690       -3.24930
H        -23.71140       39.48740       -3.12050
H        -26.59930       37.10790       -5.32110
H        -27.77980       41.95310       -4.60120
H        -24.79510       44.36790       -2.57380
H        -28.47570       44.43740       -4.14110
H        -26.21720       46.07000       -2.84400
H        -29.89300       51.53960       -4.06140
H        -31.94140       50.43290       -2.05210
H        -31.89400       52.09420       -2.82190
