142
630_1026_01010101.out	Energy:   -8568.8148478
C          1.08980       -1.30080       18.25920
C         -0.03350       -0.83770       18.83540
C         -0.10990       -1.39830       20.18670
C          1.11050       -2.20970       20.35060
C          1.79190       -2.14940       19.19390
C          1.55270       -2.94620       21.47730
N          1.92460       -3.54900       22.39460
C         -1.12400       -1.19460       21.05280
C         -1.20110       -1.73890       22.40510
C         -2.36120       -1.34710       22.96280
C         -3.07740       -0.52950       21.99820
C         -2.36020       -0.42340       20.86690
C         -2.80130        0.32520       19.74960
N         -3.17350        0.94760       18.84720
C         -2.75710       -1.66630       24.30890
C         -2.88360       -2.92260       24.76620
C         -3.34190       -3.15430       26.08690
S         -2.21930       -3.31340       27.39930
C         -3.45200       -3.54480       28.57890
C         -4.68130       -3.48710       27.99140
C         -4.59260       -3.28840       26.60150
C         -5.92480       -3.27830       26.13940
C         -6.87080       -3.42980       27.10170
S         -6.35490       -3.62960       28.71680
S         -8.42970       -3.39570       26.48230
C         -7.83510       -3.21120       24.84930
C         -6.43640       -3.15060       24.83860
C         -8.75790       -3.13770       23.76380
C         -8.47490       -2.43890       22.64460
C         -9.60280       -2.55590       21.71280
C        -10.58730       -3.41450       22.39130
C        -10.07710       -3.73960       23.59300
C        -11.87020       -3.83150       21.93870
N        -12.91240       -4.16760       21.57450
C         -9.65900       -1.97730       20.49420
C        -10.74090       -2.13100       19.52210
C        -10.44230       -1.40040       18.42920
C         -9.15560       -0.76390       18.64070
C         -8.68270       -1.08050       19.85450
C         -7.48470       -0.54690       20.36700
N         -6.49020       -0.10870       20.79200
C        -11.29520       -1.30810       17.27750
C        -11.31370       -0.24240       16.45840
C        -12.21430       -0.15560       15.36300
S        -12.76400       -1.58220       14.52400
C        -13.78590       -0.71730       13.46410
C        -13.68100        0.62060       13.69570
C        -12.78660        0.91510       14.74400
C        -12.80180        2.32600       14.85210
C        -13.62220        2.96160       13.97540
S        -14.51480        2.02060       12.86990
S        -13.60600        4.62540       14.15860
C        -12.45180        4.52420       15.46590
C        -12.11440        3.18880       15.72020
C        -12.00680        5.72110       16.09860
C        -11.11380        5.71350       17.11280
C        -10.84740        7.10070       17.51150
C        -11.65650        7.88890       16.69060
C        -12.35230        7.11260       15.84760
C        -11.76740        9.40400       16.74250
N        -11.85940       10.66090       16.78560
C        -10.10940        7.64680       18.47550
C         -9.73710        9.02000       18.80630
C         -9.05970        9.01010       19.97420
C         -8.93670        7.63040       20.39410
C         -9.56890        6.86620       19.49590
C         -9.47410        5.34920       19.50180
N         -9.39550        4.09070       19.50680
C         -8.44990       10.17430       20.54650
C         -8.20270       10.33740       21.85600
C         -7.59740       11.52080       22.36690
S         -7.15390       12.85690       21.33190
C         -6.57090       13.82470       22.60380
C         -6.67720       13.16090       23.78550
C         -7.24630       11.88200       23.63240
C         -7.28210       11.34210       24.93580
C         -6.78920       12.15400       25.90700
S         -6.20290       13.69100       25.46400
S         -6.85880       11.45660       27.42800
C         -7.58950       10.00670       26.78330
C         -7.74800       10.10330       25.39950
C         -7.92140        8.94080       27.66450
C         -7.92990        7.64880       27.26730
C         -8.33190        6.81630       28.40470
C         -8.56750        7.75040       29.51600
C         -8.30690        8.98860       29.06750
C         -8.93720        7.47050       30.85120
N         -9.23630        7.24300       31.94920
C         -8.47480        5.47560       28.37260
C         -9.02880        4.66510       29.45210
C         -9.10910        3.39300       29.02300
C         -8.57270        3.31340       27.68050
C         -8.15260        4.52870       27.29320
C         -7.35180        4.72120       26.14490
N         -6.67240        4.84400       25.21150
C         -9.49760        2.30700       29.86320
C        -10.54700        1.50170       29.67910
C        -10.77910        0.40980       30.55950
S        -12.42030       -0.08620       30.85760
C        -11.97090       -1.36470       31.90660
C        -10.61700       -1.39710       32.05740
C         -9.96590       -0.40870       31.29100
C         -8.58300       -0.59820       31.55920
C         -8.29620       -1.58950       32.44750
S         -9.58540       -2.50250       33.08620
S         -6.65040       -1.72560       32.77200
C         -6.29800       -0.44560       31.67290
C         -7.43980        0.06890       31.08340
H          1.40150       -1.08400       17.29960
H         -0.72000       -0.20040       18.40240
H          2.68180       -2.63560       19.00240
H         -0.48440       -2.32690       22.85840
H         -3.99970       -0.09490       22.15830
H         -2.95430       -0.88830       24.95760
H         -2.64690       -3.72000       24.15530
H         -3.28480       -3.70400       29.58480
H         -5.86070       -3.02880       23.99080
H         -7.60660       -1.90840       22.47200
H        -10.55080       -4.33030       24.29430
H        -11.59020       -2.70280       19.65110
H         -8.67560       -0.15710       17.95780
H        -11.92470       -2.09860       17.06850
H        -10.65580        0.53390       16.63000
H        -14.39540       -1.14670       12.75060
H        -11.45010        2.88080       16.44740
H        -10.69010        4.87300       17.53600
H        -13.02260        7.44660       15.13750
H         -9.95510        9.85650       18.24260
H         -8.44720        7.29490       21.23840
H         -8.18260       10.93980       19.90800
H         -8.45900        9.58280       22.51170
H         -6.19140       14.77810       22.49420
H         -8.15180        9.36570       24.80120
H         -7.69320        7.30650       26.32290
H         -8.37060        9.84860       29.63440
H         -9.31030        5.00860       30.38370
H         -8.52120        2.45530       27.10950
H         -8.91120        2.12650       30.69300
H        -11.19330        1.67310       28.89300
H        -12.63080       -2.01640       32.35910
H         -5.34480       -0.10210       31.47680
H         -7.45080        0.83470       30.39160
