162
630_697_01010101.out	Energy:   -9048.9616232
C         -3.34320      -10.27070       -9.27260
C         -3.41420       -8.95110       -9.57780
C         -4.63680       -8.40820       -9.01960
C         -5.30120       -9.53650       -8.34540
C         -4.51300      -10.64120       -8.50810
C         -6.52960       -9.49230       -7.66070
N         -7.53590       -9.47880       -7.09620
C         -5.09140       -7.11500       -9.09540
C         -6.29150       -6.57550       -8.53790
C         -6.38140       -5.23360       -8.84880
C         -5.20040       -4.88030       -9.63580
C         -4.42520       -5.98510       -9.78700
C         -3.20180       -6.03230      -10.48540
N         -2.20470       -6.03210      -11.06470
C         -7.43420       -4.35980       -8.46650
C         -7.51610       -3.04210       -8.81220
C         -8.56810       -2.17320       -8.42440
S         -8.55500       -0.51450       -8.98720
C         -9.67260       -2.44180       -7.61870
C        -10.48830       -1.32460       -7.46110
C        -11.73080       -0.98420       -6.76020
S        -12.65790       -1.94880       -5.83080
C        -10.01000       -0.19260       -8.15300
C        -10.90440        0.88080       -7.93060
S        -11.09520        2.52200       -8.36670
C        -11.94440        0.42930       -7.09270
C        -12.88070        1.41870       -6.80740
C        -12.56800        2.62870       -7.42600
C        -13.26970        3.85930       -7.37630
C        -14.39250        4.07780       -6.62850
C        -15.09730        5.30620       -6.56330
C        -16.19800        5.56270       -5.75730
C        -16.62310        6.90170       -5.95090
C        -15.70940        7.47910       -6.95940
C        -14.80470        6.52290       -7.30960
C        -15.75030        8.79120       -7.46990
N        -15.76030        9.85890       -7.90650
C        -17.66280        7.56460       -5.31530
C        -18.09000        8.90310       -5.50330
C        -19.13630        9.18070       -4.63330
C        -19.39920        7.97220       -3.86120
C        -18.53570        6.99980       -4.26290
C        -18.49080        5.68820       -3.75090
N        -18.48230        4.62090       -3.31320
C        -19.81670       10.41810       -4.51960
C        -20.78140       10.68860       -3.58830
C        -21.46300       11.92320       -3.46690
S        -22.58990       12.14410       -2.14350
C        -21.38050       13.05670       -4.27630
C        -22.21460       14.07750       -3.83210
C        -22.56590       15.44240       -4.24000
S        -22.00480       16.28580       -5.51590
C        -22.93690       13.73170       -2.66970
C        -23.74210       14.83090       -2.29750
S        -24.85540       15.26670       -1.07660
C        -23.54080       15.87060       -3.23010
C        -24.29730       17.00420       -2.95060
C        -25.07410       16.84560       -1.80250
C        -25.95990       17.76630       -1.19150
C        -26.27230       18.99760       -1.69760
C        -27.14930       19.92370       -1.08030
C        -27.53020       21.15290       -1.60360
C        -28.40510       21.80110       -0.69620
C        -28.55050       20.88700        0.45630
C        -27.80620       19.77290        0.21130
C        -29.33060       21.11050        1.60770
N        -29.96060       21.26470        2.56160
C        -29.01920       23.03760       -0.83840
C        -29.85550       23.70750        0.08820
C        -30.26830       24.91880       -0.45270
C        -29.67850       25.03090       -1.78120
C        -28.92650       23.92160       -2.02080
C        -28.20230       23.66630       -3.20170
N        -27.61810       23.48810       -4.18030
C        -31.10310       25.86890        0.18460
C        -31.53060       27.03550       -0.38800
C        -32.35400       27.99350        0.25020
S        -32.87120       29.40350       -0.65250
C        -32.84220       28.00360        1.55740
C        -33.61410       29.13120        1.81830
C        -34.35520       29.69770        2.95120
S        -34.52200       29.08340        4.45090
C        -33.72650       29.99060        0.70430
C        -34.52340       31.09820        1.07000
S        -35.14210       32.53260        0.37810
C        -34.90940       30.94790        2.41860
C        -35.69410       32.00130        2.87900
C        -35.91850       32.95790        1.88920
C        -36.65390       34.16650        1.96300
C        -37.24070       34.65710        3.09560
C        -37.95740       35.87920        3.16130
C        -38.48360       36.45450        4.30990
C        -39.10080       37.68880        3.97880
C        -38.94560       37.84480        2.51760
C        -38.25980       36.76660        2.04630
C        -39.42070       38.91320        1.73220
N        -39.79610       39.77250        1.06020
C        -39.70130       38.60040        4.83390
C        -40.28110       39.85120        4.50370
C        -40.73020       40.47270        5.66010
C        -40.43930       39.58390        6.77940
C        -39.83020       38.46430        6.30200
C        -39.40120       37.37190        7.08080
N        -39.06030       36.49210        7.74450
C        -41.34680       41.74740        5.72680
C        -41.73750       42.36610        6.88080
C        -42.34200       43.64690        6.94010
S        -42.74960       44.32650        8.50280
C        -42.68170       44.50450        5.89570
C        -43.25930       45.68530        6.35680
C        -43.80500       46.92160        5.77990
S        -43.91180       47.33180        4.20660
C        -43.36140       45.73490        7.75910
C        -43.95750       46.97320        8.12110
S        -44.42740       47.82200        9.52710
C        -44.23010       47.69550        6.94930
C        -44.82310       48.93900        7.20540
C        -44.99740       49.15780        8.55900
C        -45.56620       50.30450        9.22180
C        -46.05060       51.38440        8.60320
H         -2.55450      -10.95680       -9.54280
H         -2.69350       -8.37890      -10.13800
H         -4.71670      -11.63320       -8.13430
H         -7.01140       -7.13650       -7.96470
H         -4.98620       -3.89680      -10.02570
H         -8.21920       -4.80110       -7.85870
H         -6.73910       -2.60170       -9.42940
H         -9.86800       -3.40390       -7.16810
H        -13.75050        1.26950       -6.18450
H        -12.85870        4.66800       -7.97260
H        -14.78850        3.27060       -6.01830
H        -16.65460        4.85530       -5.08460
H        -14.00450        6.63800       -8.02460
H        -17.66310        9.59990       -6.20590
H        -20.16180        7.87000       -3.10440
H        -19.52220       11.19380       -5.22110
H        -21.05340        9.92350       -2.86760
H        -20.74730       13.12540       -5.14890
H        -24.28230       17.90640       -3.54460
H        -26.41580       17.44170       -0.26120
H        -25.83660       19.30930       -2.64300
H        -27.20740       21.55240       -2.55110
H        -27.70840       18.91930        0.86430
H        -30.12590       23.33810        1.06380
H        -29.81580       25.86180       -2.45600
H        -31.41580       25.62840        1.19710
H        -31.23660       27.26590       -1.40740
H        -32.63590       27.22780        2.28030
H        -36.08910       32.07210        3.88200
H        -36.72580       34.73310        1.03960
H        -37.14960       34.10330        4.02600
H        -38.41930       36.03730        5.30150
H        -37.99010       36.58830        1.01660
H        -40.35200       40.26130        3.50970
H        -40.67520       39.78650        7.81300
H        -41.49770       42.25250        4.77660
H        -41.57920       41.86930        7.83310
H        -42.51680       44.27650        4.85270
H        -45.10890       49.64240        6.43690
H        -45.58770       50.25210       10.30680
H        -46.05690       51.48900        7.52680
H        -46.46500       52.21130        9.16190
