130
630_412_01010101.out	Energy:   -4949.9087390
C          4.29300        5.62490       13.19830
C          3.25500        5.55160       12.34420
C          3.49260        6.51170       11.25690
C          4.78430        7.14950       11.57650
C          5.23470        6.61080       12.72310
C          5.48400        8.14760       10.86250
N          6.06750        8.97000       10.28450
C          2.67380        6.73280       10.20510
C          2.91370        7.69020        9.12230
C          1.88760        7.62200        8.25260
C          0.94100        6.63320        8.73630
C          1.38700        6.09780        9.88450
C          0.67800        5.11040       10.60310
N          0.08400        4.29890       11.18230
C          1.78720        8.43500        7.07330
C          1.69540        7.92410        5.83650
C          1.59620        8.77530        4.70230
S          2.22420        8.25940        3.19780
C          1.78660        9.71840        2.40720
C          2.15370        9.85940        0.96310
C          1.13030       10.58850        3.26590
C          1.03220       10.03180        4.58160
C          0.60890       11.87810        2.92180
C          0.13060       12.27600        1.72490
C         -0.30790       13.66810        1.81890
C         -0.08050       14.05900        3.21820
C          0.45760       12.99980        3.84740
C         -0.34110       15.29350        3.85710
N         -0.54960       16.30310        4.39230
C         -0.80600       14.39010        0.79490
C         -1.25110       15.77290        0.89010
C         -1.71730       16.16600       -0.31140
C         -1.53770       15.06750       -1.24640
C         -1.01400       14.00700       -0.60850
C         -0.72610       12.78070       -1.24860
N         -0.48660       11.77490       -1.77650
C         -2.20910       17.48880       -0.59170
C         -2.83170       18.24430        0.32670
C         -3.30710       19.54410        0.02290
S         -4.66460       20.15050        0.87560
C         -4.66120       21.62310        0.00640
C         -5.71680       22.63300        0.30530
C         -3.61490       21.67680       -0.89480
C         -2.83840       20.48070       -0.87980
C         -3.34340       22.78820       -1.74130
C         -3.79280       22.96820       -3.00110
C         -3.28300       24.25510       -3.49690
C         -2.50040       24.81590       -2.38990
C         -2.53640       23.93850       -1.37050
C         -1.82130       26.16920       -2.25660
N         -1.25790       27.29180       -2.14590
C         -3.50230       24.77610       -4.72030
C         -2.96400       26.04470       -5.20410
C         -3.36510       26.22260       -6.47740
C         -4.21480       25.10420       -6.84850
C         -4.28990       24.23240       -5.83210
C         -5.02240       23.02530       -5.90050
N         -5.61680       22.03540       -5.97080
C         -3.02790       27.38490       -7.24930
C         -2.93350       27.38690       -8.58710
C         -2.58970       28.56780       -9.29900
S         -2.44150       28.50850      -11.00890
C         -2.05470       30.17100      -11.12330
C         -1.80660       30.76910      -12.46590
C         -2.03760       30.76830       -9.88020
C         -2.33930       29.84810       -8.83950
C         -1.76600       32.14130       -9.64620
C         -2.67450       33.13590       -9.58400
C         -1.96930       34.38660       -9.27690
C         -0.54860       34.01300       -9.15850
C         -0.45130       32.69000       -9.37350
C          0.56800       34.83760       -8.89400
N          1.49170       35.50860       -8.68560
C         -2.54430       35.60130       -9.13860
C         -1.84730       36.84940       -8.81520
C         -2.74990       37.84960       -8.75050
C         -4.05760       37.29270       -9.06020
C         -3.95900       35.97120       -9.27470
C         -5.07380       35.15830       -9.57770
N         -6.00190       34.50410       -9.82140
C         -2.40660       39.22340       -8.47520
C         -3.26120       40.09860       -7.92120
C         -2.87590       41.43600       -7.62660
S         -3.62000       42.25790       -6.30870
C         -2.70200       43.67520       -6.55990
C         -2.87520       44.86030       -5.67340
C         -1.85850       43.54550       -7.64110
C         -1.95690       42.26190       -8.24970
H          4.39910        5.06420       14.05810
H          2.43620        4.93030       12.43660
H          6.11860        6.86360       13.19200
H          3.73250        8.31290        9.03970
H          0.05720        6.37960        8.26780
H          1.78570        9.46120        7.18250
H          1.69680        6.90030        5.70670
H          2.65810        8.97460        0.63530
H          2.79880       10.70410        0.84000
H          1.26650       10.00050        0.38180
H          0.58120       10.52400        5.36860
H          0.08180       11.69040        0.87650
H          0.72610       12.98110        4.84370
H         -1.21540       16.35730        1.74000
H         -1.77650       15.09770       -2.24990
H         -2.07740       17.87360       -1.54020
H         -2.96760       17.86880        1.27840
H         -6.36830       22.25400        1.06470
H         -6.28100       22.83240       -0.58180
H         -5.25850       23.53740        0.64730
H         -2.01270       20.32990       -1.48020
H         -4.39250       22.31360       -3.52730
H         -2.06250       24.06360       -0.46230
H         -2.37500       26.69550       -4.66140
H         -4.68980       24.99660       -7.75830
H         -2.84800       28.26820       -6.74690
H         -3.11390       26.51510       -9.10900
H         -1.90180       30.01260      -13.21650
H         -0.81900       31.17970      -12.49650
H         -2.52100       31.54450      -12.64840
H         -2.36870       30.10920       -7.84150
H         -3.69140       33.03520       -9.72770
H          0.42580       32.14680       -9.34840
H         -0.83150       36.94710       -8.66200
H         -4.93430       37.83510       -9.10810
H         -1.45750       39.54960       -8.71580
H         -4.22260       39.79310       -7.70340
H         -3.60770       44.64170       -4.92470
H         -3.19950       45.69720       -6.25600
H         -1.94280       45.09310       -5.20300
H         -1.22790       44.29240       -7.97190
H         -1.40040       41.97700       -9.07070
