170
630_1090_01010101.out	Energy:   -5626.9465961
C          6.69260        3.83910        0.67180
C          5.44050        3.61410        0.23470
C          4.75660        4.90870        0.12880
C          5.75660        5.91540        0.54390
C          6.88550        5.25800        0.86200
C          5.63320        7.32440        0.62050
N          5.55050        8.48160        0.67580
C          3.47380        5.09290       -0.25350
C          2.80420        6.39110       -0.34030
C          1.51760        6.19780       -0.68770
C          1.31240        4.76880       -0.88120
C          2.45590        4.09880       -0.63720
C          2.58450        2.69250       -0.75970
N          2.68440        1.54260       -0.86100
C          0.58780        7.29160       -0.83190
C         -0.51570        7.43340       -0.07930
C         -1.38740        8.60660       -0.19300
C         -2.46780        8.66880       -1.07850
C         -3.00750        7.61540       -1.95750
O         -2.58840        6.47530       -2.02550
C         -4.17420        8.16530       -2.73400
C         -4.33490        9.55680       -2.18930
O         -5.20170       10.34790       -2.50880
C         -3.26830        9.82070       -1.21010
C         -3.03680       10.98560       -0.47540
C         -1.94720       10.92730        0.39570
C         -1.17360        9.76470        0.56200
C         -0.21400        9.99080        1.65830
O          0.52040        9.14290        2.12880
C         -0.33300       11.41230        2.13970
C         -1.41610       11.98590        1.26980
O         -1.77560       13.14810        1.25350
C         -3.93550       12.13520       -0.51400
C         -4.96420       12.26850        0.34990
C         -5.65700       13.52810        0.05590
C         -4.96680       14.09020       -1.11830
C         -3.93890       13.27230       -1.41760
C         -5.24520       15.28810       -1.82420
N         -5.45950       16.26760       -2.40540
C         -6.69130       14.03190        0.76420
C         -7.43160       15.25340        0.44450
C         -8.39190       15.42980        1.37240
C         -8.29740       14.35120        2.34280
C         -7.30350       13.51460        1.99990
C         -6.91290       12.40550        2.78590
N         -6.58220       11.49360        3.42470
C         -9.31890       16.52890        1.36010
C        -10.64440       16.35440        1.24960
C        -11.57330       17.48080        1.26160
C        -11.93910       18.17040        0.10490
C        -11.48220       17.95470       -1.27800
O        -10.63320       17.15390       -1.61950
C        -12.20540       18.90620       -2.19000
C        -13.14310       19.63420       -1.26400
O        -14.01100       20.41810       -1.59790
C        -12.86380       19.23190        0.12270
C        -13.37820       19.75380        1.31080
C        -12.91290       19.13290        2.46940
C        -12.12440       17.97360        2.44320
C        -12.05650       17.42640        3.80950
O        -11.64410       16.31790        4.09570
C        -12.65990       18.42020        4.76830
C        -13.08250       19.54750        3.86850
O        -13.41650       20.66330        4.22020
C        -14.36920       20.82500        1.37030
C        -15.70570       20.62070        1.46870
C        -16.36850       21.93270        1.51550
C        -15.33620       22.86720        1.30730
C        -14.14270       22.25630        1.28860
C        -15.55740       24.34980        1.05580
N        -15.74080       25.57980        0.84710
C        -17.58080       22.33380        1.91890
C        -18.26370       23.63010        1.90080
C        -19.36500       23.55180        2.67780
C        -19.44270       22.19910        3.19590
C        -18.39700       21.51210        2.72010
C        -18.17630       20.02570        2.94900
N        -17.99310       18.79270        3.13880
C        -20.32490       24.61080        2.83860
C        -20.70030       25.09270        4.03410
C        -21.72360       26.13220        4.14200
C        -23.08290       25.83620        4.25420
C        -23.71410       24.51130        4.41510
O        -23.12040       23.45300        4.50800
C        -25.20280       24.67610        4.46860
C        -25.39630       26.15930        4.35290
O        -26.48820       26.69440        4.30750
C        -24.07630       26.83660        4.25230
C        -23.76650       28.21210        4.14080
C        -22.39370       28.49980        4.01560
C        -21.41120       27.48960        4.06160
C        -20.07130       28.10370        4.07150
O        -19.02690       27.50860        4.25490
C        -20.20590       29.58260        3.89500
C        -21.68880       29.79370        3.83540
O        -22.19820       30.87820        3.62990
C        -24.78890       29.26670        4.26070
C        -25.77490       29.22720        5.18260
C        -26.58820       30.43140        5.08340
C        -25.98810       31.22040        4.00270
C        -24.94160       30.52080        3.53250
C        -26.35690       32.48790        3.50890
N        -26.65870       33.53550        3.09130
C        -27.64010       30.70840        5.87900
C        -28.42980       31.92920        5.80960
C        -29.35690       31.90880        6.78520
C        -29.20890       30.65240        7.51130
C        -28.21220       29.92500        6.98330
C        -27.81910       28.65630        7.49380
N        -27.49460       27.64110        7.94060
C        -30.32300       32.94800        7.04430
C        -30.46630       34.05230        6.29510
C        -31.53700       35.00580        6.53350
C        -31.40920       36.09890        7.39290
C        -30.25750       36.55890        8.19040
O        -29.16560       36.02400        8.22140
C        -30.64960       37.80170        8.95690
C        -32.07770       38.02900        8.54600
O        -32.81840       38.92140        8.91100
C        -32.47390       36.98270        7.60840
C        -33.70680       36.84150        6.99520
C        -33.82440       35.76140        6.13710
C        -32.77640       34.86490        5.90270
C        -33.23880       33.85460        4.93170
O        -32.56700       32.94140        4.48940
C        -34.67570       34.13960        4.56700
C        -34.99730       35.37510        5.36190
O        -36.05120       35.98040        5.38880
H          7.40410        3.11170        0.84430
H          5.03210        2.69270        0.01270
H          7.75770        5.70010        1.19210
H          3.24650        7.30670       -0.16390
H          0.42080        4.33270       -1.16400
H          0.78120        8.00430       -1.55280
H         -0.75710        6.69430        0.59930
H         -5.05570        7.58360       -2.56280
H         -4.01530        8.14810       -3.79200
H          0.58730       11.94080        2.00370
H         -0.55550       11.48200        3.18400
H         -5.22010       11.59810        1.09150
H         -3.25630       13.43010       -2.17540
H         -7.24830       15.87580       -0.35800
H         -8.90330       14.24410        3.17130
H         -8.95010       17.48950        1.43940
H        -11.01800       15.39720        1.15340
H        -12.74790       18.37560       -2.94430
H        -11.54480       19.56330       -2.71600
H        -11.93700       18.75070        5.48460
H        -13.46680       18.01470        5.34230
H        -16.17660       19.70310        1.50460
H        -13.22390       22.72220        1.22690
H        -17.95390       24.46540        1.37980
H        -20.17590       21.83080        3.82190
H        -20.74700       25.02140        1.99110
H        -20.25950       24.72370        4.89110
H        -25.59480       24.31050        5.39470
H        -25.71010       24.12890        3.70180
H        -19.73700       29.90400        2.98850
H        -19.73640       30.14050        4.67810
H        -25.92880       28.46000        5.85550
H        -24.32930       30.82910        2.76100
H        -28.29970       32.68840        5.12270
H        -29.78760       30.36410        8.31570
H        -30.94530       32.83500        7.85980
H        -29.79800       34.22920        5.52890
H        -30.03470       38.63240        8.67970
H        -30.53160       37.69440       10.01490
H        -34.48560       37.49680        7.16610
H        -35.31120       33.32630        4.84920
H        -34.82240       34.26920        3.51500
