162
630_1067_01010101.out	Energy:   -4428.4804379
C        -19.40710        0.76520       -2.75300
C        -19.35250        1.89930       -3.49460
C        -17.96410        2.28280       -3.65970
C        -17.18200        1.26110       -2.94300
C        -18.06240        0.36320       -2.40710
C        -15.78070        1.21210       -2.82680
N        -14.63330        1.15300       -2.71800
C        -17.46940        3.36900       -4.33610
C        -16.09990        3.75060       -4.49180
C        -16.02910        4.91010       -5.23300
C        -17.39570        5.30060       -5.57920
C        -18.26250        4.39660       -5.05550
C        -19.66530        4.43960       -5.17970
N        -20.81000        4.50950       -5.30000
C        -14.88420        5.66310       -5.62510
C        -13.60250        5.33060       -5.31270
C        -12.45080        6.09330       -5.67800
C        -11.11210        5.74580       -5.31450
C        -10.24240        6.71790       -5.80600
C         -8.84620        6.86000       -5.70760
C         -8.27220        7.97440       -6.28930
C         -6.92520        8.42730       -6.34190
C         -6.88650        9.64490       -7.03130
C         -8.22000        9.96580       -7.43300
C         -9.07940        8.96210       -6.98700
C        -10.47220        8.81650       -7.09510
C        -11.04780        7.70620       -6.50480
C        -12.40110        7.28820       -6.40860
C         -5.74190       10.46990       -7.26620
C         -5.71990       11.70200       -7.88650
C         -4.39620       12.22860       -7.84360
C         -3.57200       11.20490       -7.16770
C         -4.38570       10.16480       -6.83180
C         -2.18750       11.27910       -6.92270
N         -1.05390       11.31610       -6.71200
C         -3.97090       13.47010       -8.27510
C         -2.69140       14.06790       -8.10060
C         -2.72280       15.36740       -8.57420
C         -4.05580       15.60900       -9.11670
C         -4.80890       14.48890       -8.94610
C         -6.14820       14.33450       -9.35410
N         -7.24310       14.23550       -9.70380
C         -1.66930       16.31840       -8.47600
C         -1.78340       17.63140       -8.81630
C         -0.77780       18.62290       -8.60630
C          0.54360       18.42110       -8.07970
C          1.16630       19.65510       -7.94800
C          2.43650       20.01160       -7.44620
C          2.74010       21.35310       -7.36950
C          3.88230       22.03870       -6.86110
C          3.65200       23.41220       -6.94170
C          2.35860       23.61040       -7.53250
C          1.79130       22.37080       -7.79780
C          0.53640       22.01460       -8.33210
C          0.22900       20.67260       -8.40130
C         -0.95140       19.99290       -8.81490
C          4.50070       24.45840       -6.46340
C          4.20670       25.80550       -6.39330
C          5.28180       26.48970       -5.75640
C          6.30440       25.46280       -5.46630
C          5.82360       24.25990       -5.88910
C          7.55960       25.67880       -4.86630
N          8.59460       25.82790       -4.37880
C          5.33910       27.82270       -5.39480
C          6.34800       28.47280       -4.63330
C          5.97000       29.78260       -4.39420
C          4.68680       29.99950       -5.05290
C          4.29830       28.84310       -5.65570
C          3.11730       28.65890       -6.40000
N          2.14300       28.53460       -7.00520
C          6.62610       30.77130       -3.60820
C          7.82970       30.58490       -2.99870
C          8.46460       31.52110       -2.12830
C          9.73650       31.29080       -1.50980
C         10.03270       32.36140       -0.67330
C         11.12940       32.60760        0.17570
C         11.10320       33.75770        0.93670
C         12.00950       34.26820        1.90830
C         11.48540       35.45280        2.43240
C         10.23930       35.71210        1.77630
C          9.98920       34.69030        0.86340
C          8.90440       34.45660       -0.00180
C          8.92570       33.30130       -0.75950
C          7.98370       32.75470       -1.67350
C         12.05390       36.25240        3.47350
C         11.50540       37.36890        4.07070
C         12.37210       37.82160        5.10900
C         13.53090       36.90570        5.10110
C         13.32670       35.97800        4.12410
C         14.65750       36.97020        5.94320
N         15.59350       36.99420        6.61730
C         12.16970       38.87070        5.98470
C         12.99480       39.27320        7.07080
C         12.40530       40.33710        7.72900
C         11.15930       40.65070        7.03590
C         11.00580       39.78640        5.99650
C          9.92710       39.77760        5.09110
N          9.03250       39.79380        4.36290
C         12.91670       40.98440        8.88780
C         12.30280       42.00460        9.54650
C         12.80490       42.62820       10.73030
C         12.16690       43.66120       11.42980
C         12.95600       44.00370       12.56030
C         12.77210       44.93960       13.56500
C         13.75350       45.02340       14.56260
C         13.86480       45.84260       15.69830
C         15.05880       45.51430       16.37500
C         15.70530       44.50410       15.69000
C         14.91860       44.16280       14.54090
C         15.10720       43.23120       13.54290
C         14.12210       43.14210       12.53980
C         14.01590       42.31390       11.42250
H        -20.29490        0.22830       -2.45410
H        -20.18740        2.44430       -3.90310
H        -17.81060       -0.50710       -1.82030
H        -15.26720        3.20410       -4.08090
H        -17.64870        6.17480       -6.16040
H        -15.07820        6.56140       -6.20480
H        -13.41110        4.43080       -4.73470
H        -10.83540        4.87050       -4.74480
H         -8.24960        6.12150       -5.18270
H         -6.08070        7.91320       -5.90810
H         -8.50930       10.84720       -7.98570
H        -11.06950        9.55800       -7.61510
H        -13.24260        7.81770       -6.82950
H         -6.56860       12.21230       -8.31040
H         -4.08820        9.25850       -6.32670
H         -1.84580       13.59320       -7.63020
H         -4.38190       16.52730       -9.58080
H         -0.73920       15.95410       -8.04830
H         -2.71790       17.99570       -9.23420
H          0.97470       17.46480       -7.82250
H          3.13270       19.24860       -7.11450
H          4.76320       21.56000       -6.46090
H          1.90640       24.57160       -7.72720
H         -0.16410       22.77790       -8.65350
H         -1.84160       20.46570       -9.20220
H          3.29470       26.27230       -6.72640
H          6.33060       23.30960       -5.82010
H          7.24380       27.99490       -4.27280
H          4.15010       30.93630       -5.04950
H          6.10250       31.71520       -3.48370
H          8.36130       29.64960       -3.15120
H         10.34970       30.41600       -1.67110
H         11.95300       31.90400        0.23400
H         12.93830       33.79860        2.19460
H          9.60040       36.56130        1.96890
H          8.07670       35.15600       -0.05400
H          7.04740       33.21760       -1.94700
H         10.56140       37.82260        3.81860
H         13.99230       35.16930        3.86350
H         13.92620       38.80650        7.34650
H         10.47760       41.44160        7.30940
H         13.86400       40.60290        9.25940
H         11.35540       42.38840        9.17810
H         11.22780       44.12030       11.15820
H         11.90050       45.58550       13.58510
H         13.15680       46.59830       16.00610
H         15.40320       45.98420       17.28410
H         16.64200       44.04050       15.96140
H         15.97770       42.58380       13.52250
H         14.73000       41.55850       11.12940
