226
630_176_01010101.out	Energy:   -5966.8135410
C         -1.83810        1.96990       -0.64500
C         -1.77500        3.32090       -0.54780
C         -2.77520        3.76870        0.40510
C         -3.43360        2.54360        0.89140
C         -2.85710        1.47920        0.25660
C         -4.43700        2.46790        1.87250
N         -5.24990        2.37300        2.68600
C         -3.09280        5.06120        0.73180
C         -4.21950        5.52310        1.48860
C         -4.29360        6.89510        1.40100
C         -3.13730        7.35890        0.63700
C         -2.40980        6.28170        0.24220
C         -1.20750        6.33100       -0.49040
N         -0.22990        6.40440       -1.09790
C         -5.38210        7.70250        1.85580
C         -5.59220        8.97150        1.43130
C         -6.73810        9.83850        1.61220
C         -8.03000        9.45690        1.96100
C         -9.09590       10.42370        1.90440
C         -8.80370       11.81530        1.68610
C         -7.44420       12.18040        1.45600
C         -6.48420       11.22830        1.35800
C         -9.83270       12.73980        1.63310
C        -11.18630       12.34620        1.69650
C        -11.48540       10.94440        1.85190
C        -12.81610       10.52160        1.84190
C        -13.86850       11.42410        1.65640
C        -13.57240       12.82860        1.50770
C        -12.23770       13.25350        1.55050
C        -14.63550       13.72670        1.30010
C        -15.95140       13.29050        1.22180
C        -16.24470       11.88970        1.37180
C        -15.20690       10.99570        1.59140
C        -17.60280       11.46140        1.28200
C        -18.60390       12.35540        1.05570
C        -18.31540       13.73710        0.90690
C        -17.03410       14.19010        0.98850
C        -10.42440       10.02710        1.97630
C         -8.41430        8.15070        2.50070
C         -8.31890        6.86810        2.02570
C         -8.78660        5.95850        3.03880
C         -9.25490        6.79720        4.15520
C         -9.03230        8.09930        3.81860
C         -9.85410        6.36660        5.35440
N        -10.36350        6.05840        6.34250
C         -8.67550        4.58520        3.07710
C         -8.89430        3.75500        4.21360
C         -8.46490        2.47140        3.94100
C         -8.02220        2.43860        2.54940
C         -8.14430        3.69030        2.02440
C         -7.82800        4.08840        0.71570
N         -7.58150        4.41890       -0.36250
C         -8.38780        1.45850        4.93790
C         -7.88370        0.20140        4.82510
C         -7.72900       -0.68550        5.95640
C         -7.56510       -2.06160        5.80850
C         -7.43720       -2.91000        6.96230
C         -7.52850       -2.33470        8.27950
C         -7.70420       -0.92400        8.38740
C         -7.77920       -0.14360        7.28320
C         -7.40190       -3.13430        9.40050
C         -7.14350       -4.51630        9.29900
C         -7.01130       -5.09490        7.98490
C         -6.71200       -6.45490        7.86730
C         -6.52410       -7.26410        8.99380
C         -6.66220       -6.68430       10.30790
C         -6.97740       -5.32480       10.42350
C         -6.45890       -7.49760       11.43710
C         -6.11570       -8.83710       11.31530
C         -5.97680       -9.41580       10.00520
C         -6.18870       -8.62650        8.88340
C         -5.61520      -10.79230        9.90320
C         -5.40050      -11.54370       11.01800
C         -5.53760      -10.97260       12.30990
C         -5.88610       -9.66450       12.45450
C         -7.16690       -4.26910        6.85390
C         -7.57420       -2.72230        4.50360
C         -6.71360       -2.57360        3.44980
C         -7.04410       -3.54060        2.43520
C         -8.23010       -4.26010        2.93010
C         -8.52370       -3.77510        4.17080
C         -8.93490       -5.28020        2.26320
N         -9.52900       -6.12500        1.74960
C         -6.35480       -3.81230        1.27710
C         -6.65910       -4.79450        0.28430
C         -5.73830       -4.71460       -0.73730
C         -4.77500       -3.67110       -0.38590
C         -5.13580       -3.11940        0.80240
C         -4.46920       -2.04760        1.42420
N         -3.89510       -1.15530        1.87760
C         -5.80250       -5.38950       -1.99470
C         -5.02440       -5.02980       -3.04410
C         -5.19020       -5.44710       -4.41970
C         -4.92880       -4.53430       -5.44290
C         -5.08540       -4.92500       -6.81480
C         -5.44010       -6.28960       -7.11660
C         -5.67600       -7.18990       -6.03400
C         -5.58290       -6.77790       -4.74240
C         -5.58900       -6.68660       -8.43530
C         -5.43640       -5.78100       -9.50570
C         -5.13950       -4.40270       -9.20310
C         -5.02620       -3.48160      -10.24660
C         -5.18620       -3.86530      -11.58240
C         -5.47200       -5.24650      -11.88750
C         -5.59130       -6.16690      -10.83860
C         -5.62650       -5.62640      -13.23350
C         -5.51430       -4.70590      -14.26650
C         -5.23590       -3.32750      -13.96070
C         -5.07770       -2.94080      -12.63760
C         -5.13010       -2.39710      -15.03720
C         -5.28470       -2.80070      -16.32800
C         -5.55520       -4.16070      -16.63030
C         -5.66710       -5.08210      -15.63430
C         -4.97890       -4.01720       -7.85800
C         -4.57610       -3.16680       -5.09720
C         -5.18310       -2.40930       -4.12100
C         -4.53660       -1.13670       -4.03500
C         -3.45550       -1.16630       -5.03350
C         -3.49440       -2.37950       -5.66320
C         -2.51860       -0.14240       -5.26720
N         -1.74280        0.68720       -5.46860
C         -4.86900       -0.09410       -3.19570
C         -4.34010        1.22690       -3.19400
C         -5.03960        1.99280       -2.28120
C         -6.01420        1.12730       -1.62230
C         -5.93060       -0.11810       -2.15950
C         -6.72000       -1.22030       -1.78080
N         -7.38920       -2.09490       -1.43640
C         -4.99500        3.39480       -2.05110
C         -4.13410        4.26240       -2.64350
C         -4.23220        5.69670       -2.52810
C         -5.39410        6.31710       -2.11570
C         -5.51260        7.72720       -2.08410
C         -4.36560        8.53350       -2.41690
C         -3.17010        7.86410       -2.82650
C         -3.11580        6.51080       -2.90960
C         -4.46630        9.91220       -2.36630
C         -5.68970       10.55240       -2.07190
C         -6.85700        9.74340       -1.80800
C         -8.09200       10.36880       -1.61030
C         -8.22280       11.76030       -1.65230
C         -7.04520       12.57090       -1.85150
C         -5.81100       11.94260       -2.05960
C         -7.17280       13.97150       -1.83530
C         -8.40410       14.58700       -1.65520
C         -9.58410       13.77840       -1.49800
C         -9.46920       12.39550       -1.49560
C        -10.84220       14.43200       -1.33380
C        -10.92640       15.79050       -1.30670
C         -9.76080       16.58770       -1.44990
C         -8.54170       16.00640       -1.62230
C         -6.72130        8.34420       -1.78110
H         -1.23900        1.33790       -1.28310
H         -1.12060        3.97840       -1.09580
H         -3.10500        0.43940        0.40880
H         -4.93910        4.88040        1.96990
H         -2.89830        8.39270        0.43940
H         -6.08640        7.20800        2.51250
H         -4.81350        9.42700        0.82210
H         -7.20360       13.22710        1.30530
H         -5.46520       11.51590        1.12100
H         -9.59980       13.78810        1.47670
H        -13.03760        9.46570        1.96050
H        -12.01550       14.31040        1.44260
H        -14.41460       14.78340        1.18630
H        -15.42430        9.93830        1.70390
H        -17.81810       10.40410        1.39540
H        -19.63370       12.02320        0.98570
H        -19.13260       14.42660        0.72630
H        -16.81170       15.24580        0.87420
H        -10.67120        8.97590        2.07850
H         -7.93640        6.56850        1.06360
H         -9.23680        8.96760        4.42600
H         -9.26450        4.09640        5.16610
H         -7.64820        1.56490        2.03900
H         -8.75420        1.79110        5.90570
H         -7.58460       -0.17330        3.85180
H         -7.75060       -0.48300        9.37730
H         -7.86480        0.92880        7.40730
H         -7.47520       -2.68620       10.38640
H         -6.61170       -6.89230        6.87900
H         -7.07850       -4.88710       11.41160
H         -6.56410       -7.05940       12.42470
H         -6.08460       -9.06220        7.89470
H         -5.51130      -11.22570        8.91390
H         -5.12150      -12.58800       10.93290
H         -5.35990      -11.59450       13.18040
H         -5.99180       -9.22480       13.44070
H         -7.04250       -4.72160        5.87600
H         -5.87340       -1.90050        3.40320
H         -9.34230       -4.07830        4.80560
H         -7.50580       -5.46010        0.31600
H         -3.92280       -3.38050       -0.98080
H         -6.60460       -6.11040       -2.12250
H         -4.26160       -4.27390       -2.88180
H         -5.94780       -8.21410       -6.26650
H         -5.76740       -7.47270       -3.93050
H         -5.85310       -7.71620       -8.65560
H         -4.80590       -2.44400      -10.01600
H         -5.81350       -7.20420      -11.06860
H         -5.83900       -6.66570      -13.46390
H         -4.86590       -1.90200      -12.40430
H         -4.92300       -1.35840      -14.80180
H         -5.20300       -2.08830      -17.14130
H         -5.67180       -4.45430      -17.66760
H         -5.87460       -6.12230      -15.86260
H         -4.78550       -2.97080       -7.64910
H         -6.05870       -2.69030       -3.55980
H         -2.79900       -2.73330       -6.40890
H         -3.56090        1.57470       -3.85210
H         -6.68670        1.45340       -0.84320
H         -5.75190        3.77450       -1.37300
H         -3.32080        3.88220       -3.25530
H         -6.26900        5.73520       -1.84930
H         -2.30850        8.46710       -3.09250
H         -2.21010        6.01840       -3.24580
H         -3.59830       10.52370       -2.59150
H         -8.97160        9.75900       -1.42910
H         -4.93050       12.55330       -2.23330
H         -6.28400       14.58050       -1.96820
H        -10.35570       11.78430       -1.36050
H        -11.73040       13.81830       -1.22670
H        -11.88500       16.28040       -1.17670
H         -9.85650       17.66740       -1.42320
H         -7.64940       16.61320       -1.73660
H         -7.58840        7.73480       -1.54730
