266
630_200_01010101.out	Energy:   -9470.8887188
C        -18.79410        4.12090      -16.45630
C        -18.74380        5.29640      -17.13880
C        -17.66280        6.09460      -16.61040
C        -17.05430        5.28910      -15.54340
C        -17.74600        4.10850      -15.46650
C        -15.94810        5.64780      -14.75290
N        -15.03540        5.91920      -14.10020
C        -17.27030        7.35640      -17.01210
C        -16.22820        8.15250      -16.46950
C        -16.14960        9.35380      -17.16700
C        -17.18070        9.32950      -18.19770
C        -17.85750        8.15220      -18.11390
C        -18.92680        7.77120      -18.94880
N        -19.79640        7.49560      -19.65440
C        -15.22380       10.38580      -16.91640
C        -15.16040       11.57950      -17.59850
C        -14.27130       12.63680      -17.29520
C        -14.61350       13.95250      -17.66590
C        -14.20300       15.06280      -16.91210
C        -14.81660       16.26550      -17.37440
C        -15.63180       16.05660      -18.43630
S        -15.74730       14.39840      -18.89730
C        -13.43820       14.84350      -15.73100
C        -12.65940       13.61830      -15.67310
C        -13.08330       12.49080      -16.47340
C        -12.29130       11.34490      -16.52180
C        -11.27700       11.15630      -15.54010
C        -10.86160       12.27160      -14.74290
C        -11.47020       13.54150      -14.95140
C        -10.69080       14.77700      -14.55610
C         -9.39710       14.85990      -15.37810
C         -9.84730       12.09130      -13.77800
C         -9.27470       10.85460      -13.60660
C         -9.67890        9.73910      -14.39140
C        -10.66490        9.90240      -15.34550
C         -8.96000        8.55290      -14.02170
C         -8.07620        8.77730      -13.02770
S         -8.04570       10.41490      -12.46020
C        -12.32440       10.39650      -17.70010
C        -11.01900       10.51690      -18.49880
C        -13.60910       15.70170      -14.63310
C        -13.36800       15.34820      -13.31320
C        -13.62040       16.15790      -12.20450
C        -13.51630       15.74820      -10.85530
C        -13.88090       16.80250      -10.02240
C        -14.21120       17.94110      -10.90330
C        -14.05450       17.54090      -12.19950
C        -14.63490       19.22000      -10.49480
N        -14.99260       20.27420      -10.19060
C        -13.99220       16.79800       -8.61480
C        -14.41640       17.83160       -7.78710
C        -14.50800       17.35950       -6.45440
C        -14.07630       15.97440       -6.46200
C        -13.75490       15.62860       -7.74180
C        -13.27660       14.36670       -8.14480
N        -12.88100       13.32440       -8.44240
C        -15.02580       18.08330       -5.38490
C        -15.25000       17.57870       -4.10700
C        -15.87430       18.26790       -3.06380
C        -15.72840       17.80840       -1.73000
C        -15.76250       18.68410       -0.64260
C        -15.44050       18.01870        0.57750
C        -15.19420       16.69780        0.39600
S        -15.28790       16.20590       -1.25330
C        -15.92480       20.08460       -0.88770
C        -16.60380       20.45790       -2.11930
C        -16.59600       19.52400       -3.22340
C        -17.36630       19.78660       -4.35200
C        -17.83440       21.11500       -4.57810
C        -17.82210       22.04920       -3.49420
C        -17.36180       21.62300       -2.21400
C        -17.90250       22.34310       -0.99760
C        -19.43020       22.20250       -0.94430
C        -18.28100       23.36530       -3.71070
C        -18.72650       23.73970       -4.95590
C        -18.74690       22.81940       -6.03960
C        -18.30920       21.52330       -5.83820
C        -19.23000       23.43780       -7.24110
C        -19.55010       24.73550       -7.05740
S        -19.29170       25.30870       -5.44220
C        -17.90980       18.68450       -5.23480
C        -19.43090       18.58490       -5.05290
C        -15.33260       21.00380       -0.01980
C        -15.02780       22.32760       -0.33200
C        -14.54300       23.26480        0.57500
C        -14.21790       24.61210        0.28120
C        -13.89910       25.27780        1.46090
C        -14.01230       24.28610        2.55000
C        -14.38310       23.09100        2.00670
C        -13.77480       24.51340        3.91940
N        -13.59350       24.66640        5.04870
C        -13.56490       26.63810        1.63210
C        -13.41480       27.33550        2.82930
C        -13.12020       28.68680        2.54990
C        -13.06230       28.82580        1.10830
C        -13.33870       27.61230        0.54560
C        -13.38950       27.34340       -0.83510
N        -13.43130       27.14900       -1.97200
C        -12.99630       29.69710        3.51070
C        -12.65290       31.01140        3.25840
C        -12.55660       32.01910        4.24540
C        -11.71030       33.11780        4.03180
C        -11.32300       33.99790        5.06390
C        -10.58550       35.10620        4.53180
C        -10.37550       35.00530        3.20010
S        -11.06500       33.58830        2.49570
C        -11.67680       33.70990        6.40180
C        -12.50660       32.55590        6.66140
C        -13.17340       31.91540        5.55440
C        -14.37470       31.24040        5.78060
C        -14.74230       30.89260        7.10800
C        -13.84720       31.20990        8.18970
C        -12.72930       32.04740        7.95200
C        -11.70140       32.22040        9.04690
C        -10.94660       30.89810        9.25620
C        -14.16800       30.76470        9.49650
C        -15.31390       30.04670        9.72020
C        -16.20230       29.72150        8.65640
C        -15.91110       30.14890        7.37680
C        -17.32320       28.95870        9.12700
C        -17.27250       28.73820       10.45700
S        -15.88500       29.42250       11.23930
C        -15.38680       31.06810        4.66870
C        -16.50670       32.10590        4.83600
C        -11.42120       34.63700        7.46230
C        -10.33500       35.45700        7.60650
C        -10.19100       36.40920        8.64370
C         -9.06070       37.19050        8.88250
C         -9.29740       38.03170        9.99240
C        -10.66810       37.73310       10.45020
C        -11.18560       36.76370        9.64100
C        -11.34570       38.33600       11.52710
N        -11.93210       38.81080       12.40030
C         -8.43400       38.96600       10.56070
C         -8.68090       39.81410       11.66220
C         -7.55940       40.60390       11.89910
C         -6.55180       40.24370       10.91410
C         -7.05990       39.26790       10.10800
C         -6.38240       38.66360        9.03210
N         -5.80290       38.18710        8.15540
C         -7.45340       41.59570       12.90390
C         -6.34240       42.34890       13.15720
C         -6.23400       43.31010       14.21730
C         -4.99600       43.51230       14.81110
C         -4.87510       44.18000       16.05450
C         -3.49530       44.27000       16.45600
C         -2.65990       43.67470       15.58260
S         -3.46210       42.95640       14.22370
C         -6.00340       44.56580       16.77400
C         -7.30520       44.41330       16.19710
C         -7.37510       43.95730       14.82050
C         -8.53920       44.19280       14.07730
C         -9.75980       44.42470       14.75070
C         -9.75060       44.57610       16.18170
C         -8.51740       44.70450       16.86090
C         -8.56460       45.10730       18.31470
C         -8.62970       43.87560       19.22620
C        -10.99660       44.66560       16.85850
C        -12.17050       44.64700       16.15460
C        -12.18480       44.53710       14.73380
C        -10.99010       44.42950       14.05560
C        -13.52690       44.52660       14.22390
C        -14.44920       44.62340       15.20300
S        -13.78390       44.72930       16.80130
C         -8.47930       44.37800       12.57630
C         -8.71150       45.85690       12.23510
C         -5.70900       45.15490       18.10250
C         -5.26390       44.45000       19.13520
H        -19.49330        3.31260      -16.61040
H        -19.39700        5.60460      -17.93840
H        -17.54810        3.29560      -14.78430
H        -15.59450        7.87030      -15.64470
H        -17.37020       10.12240      -18.90530
H        -14.52760       10.21650      -16.09930
H        -15.92360       11.79790      -18.34040
H        -14.62160       17.23920      -16.94840
H        -16.18440       16.80000      -18.98770
H        -10.44760       14.77300      -13.48990
H        -11.27130       15.67850      -14.75620
H         -8.75700       13.99710      -15.19630
H         -8.85060       15.76360      -15.10870
H         -9.63330       14.89700      -16.44210
H         -9.55480       12.91150      -13.13480
H        -11.00270        9.03950      -15.90640
H         -9.11790        7.59520      -14.49680
H         -7.41490        8.05620      -12.57370
H        -13.14860       10.64350      -18.37040
H        -12.46070        9.36040      -17.37770
H        -10.88590       11.54290      -18.84350
H        -11.06010        9.85830      -19.36630
H        -10.15760       10.24170      -17.89100
H        -14.10290       16.65010      -14.82260
H        -13.00920       14.34220      -13.11020
H        -13.21680       14.76190      -10.54030
H        -14.22010       18.14730      -13.07670
H        -14.68320       18.82870       -8.09730
H        -14.01210       15.33550       -5.59470
H        -15.29890       19.11700       -5.58040
H        -14.84660       16.59940       -3.86410
H        -15.42990       18.50480        1.54240
H        -14.95940       15.96970        1.15530
H        -17.63360       23.40330       -1.00560
H        -17.49810       21.90880       -0.08250
H        -19.90100       22.65540       -1.81620
H        -19.80960       22.69330       -0.04810
H        -19.70670       21.14820       -0.91030
H        -18.23140       24.09740       -2.91460
H        -18.28150       20.83960       -6.67790
H        -19.32270       22.91060       -8.17980
H        -19.93600       25.41870       -7.79740
H        -17.47690       17.72200       -4.95960
H        -17.68120       18.86080       -6.28950
H        -19.67010       18.39010       -4.00700
H        -19.81750       17.76600       -5.65940
H        -19.92530       19.50770       -5.35510
H        -14.99480       20.62560        0.94050
H        -15.17940       22.65920       -1.35620
H        -14.24820       25.04490       -0.70560
H        -14.54630       22.17100        2.54660
H        -13.52710       26.92830        3.82080
H        -12.84930       29.74100        0.57750
H        -13.17910       29.40630        4.54260
H        -12.30180       31.27610        2.26470
H        -10.24740       35.94800        5.11590
H         -9.84440       35.70330        2.57330
H        -12.15790       32.54620        9.98530
H        -10.95810       32.96720        8.76580
H        -11.62030       30.09000        9.53740
H        -10.20370       31.02510       10.04360
H        -10.43650       30.61580        8.33490
H        -13.53070       31.01490       10.33390
H        -16.58370       29.87490        6.57420
H        -18.11310       28.60830        8.47780
H        -17.99080       28.19580       11.05120
H        -15.80930       30.06020        4.65740
H        -14.92660       31.24110        3.69580
H        -17.01650       31.99440        5.79220
H        -17.23590       31.98690        4.03450
H        -16.08920       33.11190        4.78360
H        -12.19190       34.68090        8.22760
H         -9.48450       35.34590        6.94110
H         -8.15030       37.15610        8.30660
H        -12.17230       36.33330        9.72090
H         -9.59600       39.85200       12.23020
H         -5.56850       40.68230       10.83930
H         -8.33770       41.74570       13.51810
H         -5.42040       42.12970       12.62550
H         -3.17550       44.76240       17.36300
H         -1.58630       43.60480       15.65360
H         -9.42990       45.74740       18.50270
H         -7.68880       45.69670       18.58250
H         -9.50180       43.26680       18.98920
H         -8.69250       44.18930       20.26830
H         -7.73730       43.26290       19.09750
H        -11.03680       44.72140       17.93790
H        -11.00910       44.28790       12.98240
H        -13.75710       44.44990       13.17080
H        -15.52110       44.63930       15.08350
H         -9.21600       43.75820       12.05790
H         -7.49440       44.10360       12.19570
H         -9.68960       46.19500       12.57560
H         -8.64930       45.99610       11.15580
H         -7.94830       46.47240       12.71250
H         -5.76610       46.24000       18.16000
H         -5.16760       43.37320       19.09670
H         -4.99630       44.91870       20.07200
