162
630_618_01010101.out	Energy:   -6382.2958650
C          2.07860       13.71360       -7.99090
C          1.19450       12.89010       -8.60200
C         -0.03860       12.87670       -7.83470
C          0.19190       13.78800       -6.69690
C          1.46090       14.27630       -6.80700
C         -0.73300       14.10390       -5.68410
N         -1.48090       14.37520       -4.84910
C         -1.17520       12.15910       -8.09230
C         -2.37920       12.12080       -7.31290
C         -3.27420       11.25430       -7.89790
C         -2.64990       10.71120       -9.10500
C         -1.40690       11.24150       -9.23370
C         -0.50460       10.97000      -10.28220
N          0.21020       10.73190      -11.15490
C         -4.57290       10.94090       -7.40490
C         -5.41850       10.03170       -7.95970
C         -6.70200        9.71930       -7.44000
S         -7.40970       10.51110       -6.05340
C         -7.57190        8.75910       -7.91740
C         -7.60650        7.77340       -9.01370
O         -6.79160        7.52200       -9.86350
N         -8.83990        7.13980       -8.86790
C         -9.30310        6.09220       -9.76320
C         -9.60070        7.60030       -7.79430
O        -10.68610        7.18200       -7.48370
C         -8.76960        8.65430       -7.18370
C         -8.85960        9.53760       -6.12570
C         -9.93600        9.65590       -5.21000
C         -9.99990       10.59740       -4.22850
C        -11.04960       10.71410       -3.27720
C        -11.16230       11.70070       -2.31710
C        -12.31790       11.45130       -1.51750
C        -12.93180       10.22050       -2.06290
C        -12.17860        9.80070       -3.11380
C        -14.11150        9.60420       -1.59800
N        -15.07640        9.08470       -1.24050
C        -12.77690       12.19000       -0.44710
C        -13.86050       11.88310        0.42910
C        -13.98190       12.88300        1.37460
C        -12.95530       13.88580        1.09640
C        -12.22110       13.47710        0.02790
C        -11.13400       14.17470       -0.53650
N        -10.24750       14.76640       -0.97650
C        -14.90760       12.89650        2.45410
C        -15.06760       13.94190        3.31380
C        -15.92990       13.94200        4.44330
S        -16.12940       15.42730        5.34430
C        -16.65790       12.92930        5.04810
C        -16.92620       11.48510        4.87470
O        -16.54960       10.70510        4.03650
N        -17.75060       11.14580        5.94360
C        -18.25610        9.79730        6.14370
C        -18.04100       12.20070        6.80290
O        -18.71470       12.12550        7.79830
C        -17.33340       13.34980        6.21400
C        -17.16590       14.68310        6.53160
C        -17.71630       15.36440        7.64730
C        -17.61140       16.70770        7.84310
C        -18.12830       17.41520        8.96270
C        -18.15410       18.78920        9.10260
C        -18.71840       19.12520       10.36870
C        -19.03430       17.83770       11.02660
C        -18.69820       16.83240       10.17470
C        -19.60220       17.68220       12.30710
N        -20.06180       17.53650       13.35460
C        -18.94470       20.38590       10.88160
C        -19.42430       20.73400       12.17910
C        -19.51010       22.10950       12.28110
C        -19.08830       22.67860       11.00270
C        -18.73310       21.66590       10.16890
C        -18.26320       21.81530        8.84860
N        -17.87500       21.96600        7.77360
C        -19.89370       22.84380       13.43640
C        -20.04020       24.19750       13.47530
C        -20.36160       24.94110       14.63840
S        -20.50090       24.26970       16.24070
C        -20.57750       26.30390       14.69950
C        -20.59490       27.41550       13.73380
O        -20.41560       27.41740       12.54260
N        -20.87940       28.53360       14.50930
C        -20.98760       29.87580       13.96080
C        -21.04810       28.26490       15.86540
O        -21.30980       29.10510       16.68990
C        -20.84740       26.80570       15.99040
C        -20.83400       25.82310       16.97030
C        -20.99580       25.89080       18.37960
C        -21.26610       27.02940       19.07900
C        -21.35480       27.09480       20.49790
C        -21.12830       26.10440       21.43360
C        -21.27160       26.65320       22.74410
C        -21.63630       28.07530       22.55520
C        -21.67840       28.32320       21.21990
C        -21.90140       29.01060       23.57590
N        -22.12660       29.79610       24.38920
C        -21.06680       26.01470       23.94880
C        -21.12870       26.57640       25.25950
C        -20.79840       25.61030       26.18860
C        -20.53040       24.36930       25.46420
C        -20.68760       24.59510       24.13290
C        -20.52320       23.63820       23.11180
N        -20.38160       22.83590       22.29550
C        -20.71560       25.81070       27.59560
C        -20.33230       24.85630       28.48730
C        -20.21980       25.05270       29.89340
S        -19.67050       23.71580       30.87800
C        -20.46080       26.15240       30.69630
C        -20.92080       27.55070       30.57590
O        -21.26140       28.19400       29.61470
N        -20.90260       28.04570       31.87720
C        -21.28080       29.41300       32.19600
C        -20.48770       27.12880       32.83730
O        -20.40720       27.34710       34.01890
C        -20.20310       25.90520       32.06800
C        -19.76550       24.63480       32.35020
C        -19.42820       24.11260       33.64660
C        -18.99280       22.87220       33.87450
H          3.08610       13.93490       -8.30920
H          1.35430       12.32260       -9.50370
H          1.94120       14.96910       -6.13290
H         -2.54200       12.67850       -6.40510
H         -3.11620       10.00900       -9.77910
H         -4.88690       11.47030       -6.50860
H         -5.13380        9.47110       -8.84560
H         -8.43250        5.60090      -10.19690
H         -9.91580        6.52340      -10.55770
H         -9.89870        5.38310       -9.18850
H        -10.73620        8.93380       -5.34510
H         -9.19480       11.32390       -4.14920
H        -10.47700       12.52060       -2.17740
H        -12.36790        8.93400       -3.72800
H        -14.47360       10.99860        0.36940
H        -12.80110       14.79170        1.66240
H        -15.50560       12.00010        2.57960
H        -14.50980       14.85980        3.15370
H        -17.48080        9.08670        5.85700
H        -19.14370        9.63570        5.52830
H        -18.51250        9.68280        7.19650
H        -18.25790       14.73740        8.34990
H        -17.10620       17.30610        7.08850
H        -17.79930       19.49900        8.37360
H        -18.81250       15.77540       10.35860
H        -19.66680       20.03080       12.95910
H        -19.05580       23.73240       10.77400
H        -20.07140       22.26890       14.34200
H        -19.91240       24.79440       12.57630
H        -21.23520       29.79320       12.90290
H        -20.03950       30.40500       14.07730
H        -21.77080       30.41010       14.49880
H        -20.87480       24.95160       18.91100
H        -21.41310       27.96300       18.54780
H        -20.85780       25.08230       21.22590
H        -21.91190       29.26350       20.74440
H        -21.37590       27.60130       25.48280
H        -20.25670       23.43040       25.92050
H        -20.96760       26.80560       27.94700
H        -20.07520       23.86140       28.13580
H        -22.10720       29.70670       31.54860
H        -20.43400       30.08290       32.03200
H        -21.58060       29.44850       33.24300
H        -19.55260       24.81980       34.46240
H        -18.86010       22.15400       33.07610
H        -18.75150       22.53050       34.87050
