134
630_472_01010101.out	Energy:   -6428.0815282
C        -10.14990        0.84440      -16.29340
C         -9.91490        1.31820      -15.04910
C        -10.99070        2.22670      -14.68410
C        -11.90160        2.25140      -15.84860
C        -11.38390        1.42310      -16.79730
C        -13.08460        3.00750      -15.96140
N        -14.05280        3.62330      -16.07460
C        -11.13780        2.91520      -13.51270
C        -12.21220        3.79940      -13.14400
C        -11.98070        4.29520      -11.88250
C        -10.72190        3.72720      -11.40080
C        -10.21490        2.90460      -12.35500
C         -9.01190        2.17560      -12.25160
N         -8.02440        1.59250      -12.13660
C        -12.83560        5.19830      -11.18130
C        -12.55550        5.70800       -9.95320
C        -13.35060        6.61830       -9.19230
S        -12.62270        7.32970       -7.78670
C        -14.01420        8.29830       -7.42670
C        -14.99800        8.07110       -8.37640
C        -14.63270        7.12240       -9.35720
N        -15.53280        6.77980      -10.45980
O        -15.74420        5.61430      -10.64910
O        -15.96370        7.69100      -11.10190
N        -16.31280        8.71210       -8.37770
O        -16.33940        9.89580       -8.18370
O        -17.25680        8.00140       -8.55500
C        -14.00840        9.12060       -6.25740
C        -15.05790        9.70830       -5.59090
C        -14.54680       10.44170       -4.46930
C        -13.07990       10.26020       -4.49270
C        -12.77590        9.45810       -5.54580
C        -12.15900       10.80210       -3.57230
N        -11.39030       11.23340       -2.83010
C        -15.26890       11.17530       -3.55650
C        -14.76050       12.00010       -2.50240
C        -15.81820       12.60040       -1.85000
C        -17.05530       12.13460       -2.47790
C        -16.74460       11.28960       -3.49300
C        -17.67040       10.59850       -4.30320
N        -18.45220       10.02960       -4.92980
C        -15.80100       13.52480       -0.76910
C        -14.67550       13.98580       -0.15310
C        -14.70590       14.93000        0.90640
S        -16.19730       15.62180        1.45260
C        -15.40850       16.64680        2.61650
C        -14.04030       16.45270        2.56060
C        -13.63990       15.48280        1.61630
N        -12.24330       15.17530        1.37310
O        -11.98550       14.10280        0.89260
O        -11.44620       16.02500        1.65200
N        -13.09320       17.11460        3.47230
O        -12.95720       18.29670        3.34660
O        -12.58310       16.42090        4.29960
C        -16.21290       17.47880        3.45270
C        -17.59050       17.50580        3.42270
C        -18.06770       18.45540        4.38050
C        -16.86110       19.02170        5.01990
C        -15.76740       18.43250        4.46880
C        -16.85440       19.98590        6.04980
N        -16.84130       20.76560        6.89800
C        -19.37810       18.77320        4.65770
C        -19.86510       19.75700        5.57440
C        -21.24490       19.74400        5.56090
C        -21.67440       18.71670        4.61300
C        -20.57660       18.14000        4.05950
C        -20.57820       17.10880        3.09830
N        -20.59570       16.26510        2.31270
C        -22.15740       20.54850        6.30110
C        -21.79810       21.58930        7.10210
C        -22.73320       22.37360        7.82980
S        -24.41530       21.95920        7.89280
C        -24.79920       23.28780        8.94350
C        -23.65440       24.00880        9.23340
C        -22.49450       23.50460        8.60620
N        -21.17050       24.05780        8.84130
O        -20.36660       23.95790        7.95260
O        -20.97190       24.54580        9.91570
N        -23.65220       25.22470       10.05800
O        -24.08980       25.12290       11.16830
O        -23.25630       26.22190        9.53480
C        -26.15650       23.49030        9.34400
C        -26.74020       24.57520        9.95520
C        -28.13210       24.29500       10.17310
C        -28.36640       22.93810        9.63770
C        -27.19080       22.47920        9.13470
C        -29.59500       22.24560        9.62210
N        -30.58660       21.65960        9.59320
C        -29.06200       25.11060       10.77060
C        -30.42500       24.79650       11.08790
C        -31.00250       25.87290       11.72040
C        -29.99980       26.93860       11.80290
C        -28.84430       26.49790       11.24480
C        -27.66270       27.25470       11.09470
N        -26.72300       27.90870       10.96640
C        -32.34270       25.92360       12.21050
C        -32.88130       26.99900       12.83840
C        -34.21500       27.09540       13.35360
S        -34.71480       28.59220       14.08730
C        -36.27150       27.99400       14.42380
C        -36.42030       26.70020       13.99830
C        -35.24890       26.18380       13.38750
N        -35.14170       24.81890       12.84170
O        -35.45680       24.67470       11.69840
O        -34.68660       23.98700       13.56910
N        -37.65710       25.96490       14.18140
O        -38.55790       26.56680       14.70370
O        -37.69160       24.82900       13.80810
H         -9.53980        0.14910      -16.85000
H         -9.08140        1.07720      -14.41050
H        -11.80530        1.21810      -17.76960
H        -13.06190        4.02780      -13.76680
H        -10.27740        3.93030      -10.43850
H        -13.74640        5.47290      -11.69950
H        -11.61720        5.44220       -9.47480
H        -16.10050        9.64970       -5.85150
H        -11.79360        9.12530       -5.84450
H        -13.71400       12.13890       -2.28560
H        -18.04420       12.42810       -2.16020
H        -16.76920       13.88120       -0.42610
H        -13.69920       13.63430       -0.46630
H        -18.21480       16.91250        2.77500
H        -14.74220       18.63530        4.72920
H        -19.23830       20.39880        6.17160
H        -22.70570       18.47980        4.39980
H        -23.21220       20.30960        6.19010
H        -20.75520       21.87170        7.19380
H        -26.25630       25.49230       10.24430
H        -27.01720       21.52250        8.66660
H        -30.90510       23.85360       10.88180
H        -30.16530       27.91400       12.23400
H        -32.92980       25.02630       12.05240
H        -32.28070       27.89170       12.98310
H        -37.02370       28.58880       14.91550
