122
630_672_01010101.out	Energy:   -3421.5488372
C         -1.46460       -3.55480        4.98160
C         -2.25190       -2.65630        4.36430
C         -3.52610       -2.59450        5.09090
C         -3.39030       -3.55370        6.20140
C         -2.16820       -4.10700        6.11540
C         -4.32310       -3.88600        7.21010
N         -5.08150       -4.16820        8.04250
C         -4.57490       -1.80650        4.77260
C         -5.84530       -1.74280        5.49450
C         -6.62760       -0.81790        4.90650
C         -5.91650       -0.28230        3.75780
C         -4.70310       -0.84750        3.66830
C         -3.77280       -0.51180        2.66350
N         -3.02110       -0.22010        1.82840
C         -7.96150       -0.51470        5.34520
C         -8.53010        0.68090        5.14920
C         -9.84800        0.93480        5.57980
N        -10.33600        2.19200        5.35770
C        -11.64510        2.29170        5.77010
C        -11.97770        1.06810        6.31890
C        -10.84760        0.21880        6.20110
C        -12.33860        3.50690        5.57820
C        -11.76930        4.58660        5.00240
C        -12.73790        5.67030        4.95720
C        -13.96110        5.12510        5.56140
C        -13.70910        3.85320        5.91800
C        -15.20920        5.75680        5.75530
N        -16.23500        6.27420        5.91800
C        -12.47940        6.89560        4.45870
C        -13.43140        7.99210        4.43370
C        -12.82930        9.07810        3.91280
C        -11.47870        8.70960        3.52570
C        -11.24750        7.42750        3.85230
C        -10.01480        6.77840        3.61300
N         -9.00580        6.23570        3.42430
C        -13.47990       10.34180        3.71200
C        -14.45440       10.79610        4.51160
C        -15.04360       12.04870        4.26770
N        -15.53800       12.73050        5.34630
C        -16.07520       13.93170        4.94430
C        -15.90310       14.01250        3.57640
C        -15.26340       12.82300        3.15010
C        -16.62970       14.79040        5.91430
C        -17.21370       14.33080        7.04100
C        -17.68360       15.47070        7.82740
C        -17.32660       16.65650        7.03500
C        -16.71250       16.23830        5.91570
C        -17.54010       18.01840        7.34080
N        -17.70630       19.13620        7.59180
C        -18.30640       15.38880        9.02200
C        -18.78660       16.51160        9.82010
C        -19.33810       16.03040       10.95330
C        -19.25250       14.58030       10.93480
C        -18.64720       14.19820        9.80830
C        -18.35710       12.74540        9.46850
N        -18.11640       11.54010        9.18660
C        -19.90120       16.87310       11.96790
C        -20.42960       16.40190       13.10390
C        -20.98540       17.28270       14.05000
N        -21.52100       16.73200       15.18390
C        -22.03830       17.71330       15.99160
C        -21.81370       18.91930       15.35520
C        -21.14980       18.64800       14.13760
C        -22.64160       17.33010       17.20480
C        -23.17130       18.24060       18.04600
C        -23.71000       17.53570       19.21000
C        -23.44700       16.11090       18.96590
C        -22.82040       16.00960       17.78390
C        -23.76000       14.98890       19.76430
N        -24.00980       14.05310       20.40360
C        -24.30790       18.11870       20.26810
C        -24.82700       17.41360       21.43800
C        -25.30560       18.32060       22.31140
C        -25.16680       19.63930       21.71390
C        -24.57090       19.54200       20.51480
C        -24.29090       20.66140       19.69900
N        -24.06070       21.59240       19.04510
C        -25.91330       17.96260       23.56590
C        -25.90970       18.75990       24.64450
C        -26.52450       18.35160       25.85110
N        -26.46590       19.20420       26.92950
C        -27.11880       18.64770       27.99880
C        -27.59980       17.41960       27.60950
C        -27.22480       17.23160       26.25850
H         -0.50780       -3.80970        4.69080
H         -2.00400       -2.10670        3.52670
H         -1.79040       -4.81790        6.76110
H         -6.09970       -2.31160        6.31720
H         -6.28940        0.42730        3.10780
H         -8.50240       -1.24750        5.83040
H         -7.99630        1.42700        4.67640
H         -9.81990        2.92800        4.95630
H        -12.88610        0.81700        6.73940
H        -10.78550       -0.75970        6.52310
H        -10.80060        4.63530        4.65010
H        -14.38750        3.21760        6.36620
H        -14.40890        7.94650        4.76140
H        -10.79930        9.33790        3.06880
H        -13.18350       10.92710        2.91540
H        -14.77360       10.22430        5.30920
H        -15.51300       12.40790        6.27610
H        -16.18940       14.79910        2.97280
H        -15.00880       12.58070        2.17980
H        -17.31240       13.33790        7.30430
H        -16.35380       16.85440        5.16940
H        -18.71610       17.50800        9.56090
H        -19.60250       13.94880       11.67220
H        -19.89900       17.89370       11.81450
H        -20.42940       15.38630       13.28700
H        -21.53300       15.76940       15.39010
H        -22.08270       19.85160       15.70650
H        -20.84380       19.34530       13.44100
H        -23.19320       19.26120       17.89500
H        -22.51150       15.12540       17.35050
H        -24.82690       16.39050       21.57270
H        -25.48060       20.52120       22.14840
H        -26.37650       17.04330       23.63950
H        -25.45230       19.68360       24.59330
H        -26.02150       20.08260       26.93270
H        -27.22970       19.07500       28.93150
H        -28.13470       16.75840       28.19410
H        -27.43670       16.40420       25.67920
