210
630_210_01010101.out	Energy:   -4890.4762409
C        -33.93330       -0.97750       14.69910
C        -32.97930       -0.59860       15.58950
C        -31.79300       -1.39660       15.36950
C        -32.12080       -2.29810       14.25630
C        -33.40720       -2.03140       13.86840
C        -31.27280       -3.26210       13.68270
N        -30.59490       -4.05820       13.19360
C        -30.59840       -1.33500       16.04870
C        -29.42840       -2.11460       15.83410
C        -28.44510       -1.73140       16.72530
C        -28.99450       -0.66030       17.55740
C        -30.27210       -0.41400       17.16910
C        -31.12150        0.55220       17.74250
N        -31.78140        1.35530       18.24270
C        -27.13560       -2.27270       16.80440
C        -26.18750       -1.86810       17.69660
N        -24.93510       -2.39180       17.77850
C        -24.01180       -1.89340       18.79560
C        -23.24850       -0.67830       18.26940
C        -24.37740       -3.16320       16.72600
C        -23.75850       -4.38030       17.00340
C        -23.20300       -5.11410       15.97010
C        -23.26920       -4.66090       14.65060
C        -23.92700       -3.44890       14.35770
C        -24.44420       -2.70240       15.41400
C        -24.15820       -2.94450       12.99410
C        -24.51290       -3.68900       11.95320
N        -22.66920       -5.41540       13.63030
C        -22.91200       -6.85760       13.56640
C        -21.64980       -7.64680       13.90550
C        -21.85970       -4.83140       12.69450
C        -21.46800       -5.35290       11.47650
C        -20.62070       -4.41450       10.83060
C        -20.48290       -3.27330       11.75700
C        -21.23360       -3.53550       12.86780
C        -19.71550       -2.11110       11.55730
N        -19.09860       -1.14380       11.43220
C        -20.05830       -4.50750        9.56740
C        -19.25460       -3.55560        8.88970
C        -18.95800       -4.02240        7.61960
C        -19.57850       -5.33110        7.47440
C        -20.23250       -5.63740        8.63090
C        -20.94340       -6.82700        8.87420
N        -21.51820       -7.81320        9.04650
C        -18.19270       -3.33800        6.63160
C        -18.05240       -3.79140        5.35730
N        -17.32830       -3.19720        4.36180
C        -16.39090       -2.11850        4.66890
C        -15.13760       -2.65520        5.35760
C        -17.42780       -3.67860        3.04890
C        -18.65380       -4.16590        2.58290
C        -18.74610       -4.67780        1.30420
C        -17.64820       -4.69410        0.44150
C        -16.41980       -4.16060        0.87650
C        -16.33400       -3.67970        2.18590
C        -15.19630       -4.05700        0.07120
C        -15.10410       -3.95900       -1.25060
N        -17.82180       -5.30810       -0.82290
C        -18.94840       -4.88330       -1.65360
C        -18.47990       -4.05790       -2.85110
C        -17.06930       -6.39520       -1.17770
C        -16.00450       -6.93600       -0.47780
C        -15.44190       -7.98810       -1.23960
C        -16.29540       -8.13740       -2.43350
C        -17.26380       -7.17020       -2.38510
C        -16.20590       -9.14410       -3.41120
N        -16.18810       -9.97310       -4.21510
C        -14.25530       -8.66780       -1.00470
C        -13.55920       -9.51740       -1.89530
C        -12.35050       -9.89100       -1.32640
C        -12.28960       -9.30230        0.00270
C        -13.40850       -8.54730        0.20230
C        -13.70190       -7.78340        1.34580
N        -13.91890       -7.14730        2.28500
C        -11.28670      -10.63650       -1.91770
C        -11.28860      -10.89940       -3.25280
N        -10.31510      -11.50560       -3.98780
C         -9.06880      -11.97770       -3.39940
C         -9.26610      -13.36450       -2.78760
C        -10.56040      -11.64900       -5.36960
C        -11.81110      -12.12340       -5.77470
C        -12.16810      -12.04870       -7.10550
C        -11.29990      -11.48660       -8.04070
C        -10.00820      -11.10120       -7.66700
C         -9.64390      -11.21470       -6.32190
C         -9.03900      -10.50080       -8.59700
C         -9.32870       -9.60370       -9.53260
N        -11.83290      -11.21830       -9.34260
C        -11.69010      -12.24440      -10.37560
C        -10.99050      -11.68200      -11.61040
C        -12.87810      -10.33070       -9.33970
C        -13.15640       -9.46720       -8.29490
C        -14.35670       -8.77630       -8.57310
C        -14.77660       -9.21180       -9.92230
C        -13.87960      -10.14620      -10.36810
C        -15.90600       -8.75550      -10.62340
N        -16.82750       -8.38920      -11.21500
C        -15.06580       -7.96860       -7.69570
C        -16.34110       -7.37670       -7.87020
C        -16.74050       -6.79420       -6.67590
C        -15.66500       -6.96970       -5.71570
C        -14.66030       -7.68160       -6.30170
C        -13.50670       -8.12950       -5.63480
N        -12.59440       -8.50610       -5.03410
C        -18.00200       -6.25390       -6.30470
C        -19.05010       -6.06190       -7.15100
N        -20.29340       -5.68390       -6.72400
C        -21.32440       -5.41520       -7.72510
C        -21.97180       -6.71720       -8.19720
C        -20.74380       -6.04910       -5.42680
C        -21.51490       -5.16920       -4.66940
C        -21.95870       -5.55580       -3.41430
C        -21.64450       -6.81420       -2.89310
C        -20.91280       -7.72910       -3.67860
C        -20.46280       -7.32100       -4.93100
C        -20.71210       -9.11400       -3.23780
C        -19.67920       -9.88090       -3.57320
N        -22.12800       -7.16190       -1.63090
C        -21.18710       -7.64280       -0.61200
C        -21.88140       -8.65260        0.29350
H        -34.93000       -0.57230       14.60670
H        -33.06960        0.16620       16.34320
H        -33.94900       -2.52160       13.07360
H        -29.32790       -2.88420       15.08670
H        -28.46370       -0.15360       18.34960
H        -26.89650       -3.05660       16.09320
H        -26.41640       -1.12610       18.45570
H        -23.31360       -2.69430       19.05450
H        -24.58680       -1.62990       19.68770
H        -22.67510       -0.94910       17.38320
H        -22.56520       -0.31360       19.03530
H        -23.94350        0.11850       18.00590
H        -23.71260       -4.75170       18.02000
H        -22.69710       -6.04580       16.19150
H        -24.93010       -1.75620       15.20520
H        -24.10230       -1.86390       12.89040
H        -24.62610       -4.76260       12.01240
H        -24.71770       -3.24550       10.98880
H        -23.25160       -7.10770       12.55550
H        -23.71660       -7.09710       14.26630
H        -20.84820       -7.39510       13.21210
H        -21.85830       -8.71350       13.83060
H        -21.31750       -7.42160       14.91840
H        -21.77030       -6.29680       11.05790
H        -21.32830       -2.91140       13.74240
H        -18.93900       -2.60830        9.29520
H        -19.51820       -5.95970        6.59870
H        -17.74100       -2.40250        6.94290
H        -18.54230       -4.71170        5.05610
H        -16.89570       -1.39180        5.31370
H        -16.13180       -1.61340        3.73500
H        -15.40150       -3.15740        6.28760
H        -14.46430       -1.82850        5.58180
H        -14.62160       -3.36660        4.71420
H        -19.53190       -4.14660        3.21620
H        -19.68970       -5.09740        0.97410
H        -15.37510       -3.31010        2.52810
H        -14.28480       -4.00880        0.66270
H        -15.95980       -3.96790       -1.90800
H        -14.14280       -3.85640       -1.73490
H        -19.62170       -4.27700       -1.04290
H        -19.49810       -5.76350       -1.99890
H        -18.03820       -3.11970       -2.51790
H        -19.33500       -3.83790       -3.49060
H        -17.74180       -4.60840       -3.43200
H        -15.61930       -6.58700        0.46350
H        -18.05250       -7.03330       -3.10740
H        -13.90890       -9.78270       -2.87930
H        -11.46870       -9.43040        0.69260
H        -10.46050      -10.92800       -1.27880
H        -12.11010      -10.52900       -3.85870
H         -8.74090      -11.26390       -2.63740
H         -8.30800      -12.02270       -4.18300
H        -10.02510      -13.33090       -2.00700
H         -8.32840      -13.71130       -2.35450
H         -9.58540      -14.07010       -3.55420
H        -12.50460      -12.51720       -5.04210
H        -13.15240      -12.37080       -7.42440
H         -8.66830      -10.85640       -6.01380
H         -8.00550      -10.79710       -8.43340
H        -10.33150       -9.23790       -9.70070
H         -8.55820       -9.17600      -10.15930
H        -12.67900      -12.63480      -10.64360
H        -11.09930      -13.06090       -9.95050
H        -11.54610      -10.83500      -12.01040
H        -10.92260      -12.45430      -12.37610
H         -9.98580      -11.34880      -11.35190
H        -12.58070       -9.36590       -7.39260
H        -13.91940      -10.66550      -11.31280
H        -16.92440       -7.42990       -8.77510
H        -15.68710       -6.60410       -4.70000
H        -18.14650       -6.05620       -5.24700
H        -18.92640       -6.13540       -8.22730
H        -20.85950       -4.89030       -8.56420
H        -22.07750       -4.75930       -7.27940
H        -21.22300       -7.37280       -8.64060
H        -22.73600       -6.49860       -8.94220
H        -22.43450       -7.23390       -7.35660
H        -21.75890       -4.18520       -5.05190
H        -22.55370       -4.86970       -2.82060
H        -19.92230       -8.02240       -5.55560
H        -21.50540       -9.51500       -2.61180
H        -18.85360       -9.52580       -4.17520
H        -19.60640      -10.90600       -3.23770
H        -22.71260       -6.42640       -1.24470
H        -20.82990       -6.78960       -0.01710
H        -20.32630       -8.10180       -1.10380
H        -22.73410       -8.19060        0.79100
H        -21.18480       -9.01520        1.04890
H        -22.23890       -9.49720       -0.29490
