186
630_1000_01010101.out	Energy:   -5336.7784252
C         -5.48980        5.67410       -5.22430
C         -6.42970        5.38210       -4.29590
C         -6.03190        5.96920       -3.02610
C         -4.74530        6.64400       -3.28890
C         -4.43900        6.45670       -4.60440
C         -3.96310        7.34390       -2.35050
N         -3.30010        7.91750       -1.60110
C         -6.70310        5.91690       -1.83800
C         -6.32430        6.51640       -0.58350
C         -7.27240        6.23040        0.36110
C         -8.31110        5.41680       -0.27270
C         -7.98810        5.22440       -1.57750
C         -8.74660        4.48660       -2.50810
N         -9.38980        3.87360       -3.24300
C         -7.25620        6.65620        1.73530
C         -8.19960        6.34640        2.63780
C         -8.14480        6.79320        4.06480
C         -7.61770        8.22670        4.24510
O         -7.87070        9.16380        3.55590
O         -6.82590        8.26580        5.32380
C         -6.70010        7.00730        5.98110
C         -7.17100        5.97870        4.93540
C         -7.75100        4.69090        5.51060
C         -8.79900        4.93700        6.59430
C         -8.32540        5.83900        7.73540
C         -7.50890        7.07830        7.29870
O         -6.59460        7.30760        8.37780
C         -6.59150        6.34240        9.29880
O         -5.96930        6.41420       10.32070
C         -7.47720        5.18190        8.84350
C         -6.54390        4.07370        8.47170
C         -5.41670        4.20270        7.71870
C         -4.67350        2.96860        7.77860
C         -5.47740        2.05150        8.60730
C         -6.59930        2.71860        8.99920
C         -5.13110        0.71280        8.87820
N         -4.83100       -0.38000        9.08850
C         -3.41330        2.77590        7.28480
C         -2.44560        1.80690        7.70900
C         -1.22550        2.14500        7.18150
C         -1.41350        3.28390        6.28280
C         -2.71070        3.68190        6.34560
C         -3.35760        4.68670        5.60090
N         -3.93760        5.47940        4.99510
C          0.07060        1.61510        7.51790
C          0.28070        0.79650        8.55960
C          1.63990        0.37430        9.01180
C          1.69580       -1.15920        9.23440
O          1.85930       -1.97880        8.38960
O          1.54450       -1.42500       10.54270
C          1.30900       -0.22840       11.28210
C          1.96250        0.86110       10.43150
C          1.49450        2.21420       10.94680
C          2.10660        2.38050       12.34250
C          1.91750        1.19310       13.30300
C          1.90170       -0.23420       12.69030
O          1.06760       -1.00010       13.54910
C          0.28380       -0.25290       14.33920
O         -0.55350       -0.69420       15.06320
C          0.64260        1.22690       14.17560
C         -0.52120        2.02300       13.67650
C         -0.78490        3.32400       13.97840
C         -2.06530        3.69200       13.41390
C         -2.54590        2.48620       12.70310
C         -1.61800        1.50330       12.86900
C         -3.77380        2.36740       12.02610
N         -4.78700        2.25870       11.48660
C         -2.75120        4.86360       13.58650
C         -4.07990        5.18600       13.13520
C         -4.43610        6.41890       13.61450
C         -3.30690        6.95450       14.36620
C         -2.29820        6.03990       14.36660
C         -1.06920        6.19320       15.02410
N         -0.07870        6.35800       15.59550
C         -5.68790        7.12250       13.47520
C         -6.80100        6.56510       12.97970
C         -8.11700        7.27660       12.79580
C         -8.88480        6.56890       11.67650
O         -9.31570        5.45600       11.70350
O         -8.96880        7.37240       10.60840
C         -8.24110        8.58930       10.78690
C         -7.99680        8.72300       12.29930
C         -9.00450        9.69180       12.91460
C         -8.76710       11.09040       12.33600
C         -8.73820       11.10300       10.79970
C         -9.02310        9.74250       10.14100
O         -8.55860        9.90280        8.80300
C         -7.61170       10.85960        8.70930
O         -7.02640       11.12610        7.71140
C         -7.42800       11.51980       10.08380
C         -6.15300       11.05650       10.72770
C         -5.57990       11.60880       11.83160
C         -4.38690       10.86110       12.17160
C         -4.28240        9.79510       11.15610
C         -5.33240        9.92830       10.29650
C         -3.29740        8.78770       11.14090
N         -2.50310        7.95200       11.16530
C         -3.52240       11.12350       13.19820
C         -2.24000       10.52310       13.45710
C         -1.64140       11.17960       14.50130
C         -2.56920       12.19920       14.98900
C         -3.69380       12.17570       14.22920
C         -4.84740       12.95950       14.42810
N         -5.79300       13.58980       14.62350
C         -0.32870       11.00300       15.06580
C          0.52540       10.02270       14.73630
C          1.88590        9.89760       15.34800
C          2.93890        9.77310       14.23140
O          3.37060       10.66440       13.57210
O          3.29760        8.48990       14.11050
C          2.64250        7.63450       15.04890
C          2.04790        8.57460       16.11140
C          2.99310        8.70800       17.30390
C          3.10000        7.35970       18.01450
C          3.52960        6.22800       17.06640
C          3.67200        6.61480       15.57600
O          3.47020        5.38410       14.87650
C          2.80110        4.48820       15.60900
O          2.45210        3.41880       15.19620
C          2.55990        5.04750       16.99680
H         -5.49300        5.38560       -6.26470
H         -7.33390        4.81590       -4.44620
H         -3.56200        6.82290       -5.11650
H         -5.43210        7.10130       -0.43050
H         -9.19060        5.03710        0.22480
H         -6.41390        7.27770        2.02620
H         -9.05350        5.73320        2.36860
H         -9.15320        6.77340        4.49550
H         -5.63750        6.87510        6.21840
H         -6.29870        5.71820        4.32170
H         -6.93430        4.08590        5.91090
H         -8.21040        4.12000        4.69840
H         -9.11420        3.97710        7.01250
H         -9.68280        5.39880        6.14210
H         -9.22170        6.21920        8.24190
H         -8.15480        7.96540        7.24730
H         -8.11270        4.85640        9.67130
H         -5.04890        5.10580        7.26420
H         -7.39550        2.33460        9.61770
H         -2.65350        1.01670        8.41230
H         -0.62930        3.72200        5.68420
H          0.91090        1.97620        6.93160
H         -0.55110        0.44610        9.16300
H          2.40090        0.66560        8.28320
H          0.22040       -0.08310       11.35780
H          3.05200        0.79470       10.55650
H          0.40150        2.25440       10.98680
H          1.84190        3.02530       10.30230
H          1.70030        3.27520       12.81980
H          3.18220        2.54340       12.22370
H          2.76020        1.22960       14.00240
H          2.89460       -0.69870       12.68340
H          0.90050        1.61790       15.16550
H         -0.16870        3.97390       14.57700
H         -1.68830        0.48970       12.50440
H         -4.68550        4.54360       12.51790
H         -3.29560        7.92260       14.84550
H         -5.68710        8.15240       13.82340
H         -6.80300        5.52570       12.66810
H         -8.70020        7.19880       13.72020
H         -7.28410        8.48520       10.26460
H         -6.98930        9.11490       12.46560
H         -8.87460        9.72760       13.99900
H        -10.02510        9.35700       12.70580
H         -7.82270       11.47220       12.73190
H         -9.55780       11.75920       12.68460
H         -9.50960       11.79630       10.44370
H        -10.09020        9.49990       10.09680
H         -7.38510       12.60610        9.95970
H         -5.90720       12.49390       12.35090
H         -5.51430        9.32390        9.42080
H         -1.81130        9.73240       12.86320
H         -2.37080       12.84860       15.82830
H         -0.03400       11.73850       15.81000
H          0.25610        9.25930       14.01300
H          2.10950       10.77110       15.96670
H          1.84620        7.09080       14.52080
H          1.08110        8.18940       16.45010
H          2.60420        9.45220       18.00340
H          3.97860        9.04240       16.96510
H          2.12850        7.11920       18.45700
H          3.82000        7.43950       18.83290
H          4.50650        5.84810       17.38910
H          4.68070        6.96720       15.33280
H          2.72700        4.28780       17.75880
H          1.51570        5.37060       17.04410
