150
630_639_01010101.out	Energy:   -6224.6928828
C        -18.15010        5.12590      -18.64660
C        -16.93800        4.64120      -18.28280
C        -16.22060        5.67330      -17.55920
C        -17.12860        6.83450      -17.51790
C        -18.27600        6.48800      -18.17220
C        -16.87000        8.07290      -16.90140
N        -16.67990        9.09300      -16.39680
C        -14.95810        5.60160      -17.02790
C        -14.24340        6.63750      -16.34690
C        -12.99750        6.16840      -15.98150
C        -12.89480        4.78080      -16.43160
C        -14.04870        4.43070      -17.05510
C        -14.33090        3.16910      -17.61700
N        -14.53720        2.12510      -18.06080
C        -11.94390        6.85150      -15.31770
C        -12.04490        8.13230      -14.85030
C        -11.03930        8.87390      -14.18620
S        -11.58190       10.13710      -13.13810
C        -10.01100       10.44850      -12.49950
C         -9.05630        9.58850      -13.10130
C         -9.63350        8.74320      -14.11080
C         -8.74130        7.95350      -14.88050
N         -9.13290        7.32350      -16.12920
O         -8.59260        6.28550      -16.42030
O         -9.94130        7.89570      -16.81500
C         -7.40510        7.86010      -14.55310
C         -6.88700        8.59270      -13.47910
C         -7.68870        9.47010      -12.78830
C         -9.85700       11.46430      -11.53280
C         -8.69850       12.03260      -11.00910
C         -9.04470       13.04390      -10.08460
C        -10.52030       13.08350      -10.04440
C        -10.98870       12.15030      -10.91680
C        -11.30980       13.95070       -9.26260
N        -11.97580       14.65680       -8.64060
C         -8.17620       13.86820       -9.37660
C         -8.49920       14.88870       -8.45510
C         -7.32820       15.51310       -8.02900
C         -6.21090       14.85340       -8.69340
C         -6.69960       13.86250       -9.48780
C         -5.92810       12.98470      -10.27450
N         -5.28440       12.26950      -10.91120
C         -7.24910       16.58880       -7.11990
C         -6.10510       17.31110       -6.88370
C         -5.97970       18.42180       -6.02620
S         -4.74940       19.57190       -6.42310
C         -5.30480       20.74270       -5.28170
C         -6.41060       20.22950       -4.55000
C         -6.75130       18.88780       -4.93310
C         -7.74100       18.22250       -4.16890
N         -7.94400       16.78440       -4.23310
O         -6.98340       16.09380       -4.46180
O         -9.05270       16.37050       -4.00780
C         -8.46800       18.89150       -3.20520
C         -8.19600       20.23310       -2.92110
C         -7.16010       20.88100       -3.55370
C         -4.65030       21.98770       -5.22910
C         -4.85600       23.09070       -4.39760
C         -3.95870       24.11990       -4.74990
C         -3.14820       23.60360       -5.87060
C         -3.56100       22.33490       -6.13620
C         -2.10050       24.27940       -6.52810
N         -1.22920       24.80200       -7.07270
C         -3.83620       25.37820       -4.16400
C         -3.00510       26.44100       -4.57010
C         -3.16220       27.51300       -3.69110
C         -4.13450       27.11550       -2.68160
C         -4.55780       25.85180       -2.96070
C         -5.50350       25.11200       -2.22440
N         -6.27860       24.50720       -1.62050
C         -2.49390       28.74870       -3.79620
C         -2.50350       29.73880       -2.84440
C         -1.78730       30.94860       -2.94140
S         -1.25410       31.68390       -1.46680
C         -0.16920       32.76090       -2.26660
C         -0.29140       32.63560       -3.67460
C         -1.25060       31.63800       -4.05670
C         -1.55860       31.52340       -5.43450
N         -2.71410       30.78670       -5.92190
O         -3.68980       30.74430       -5.21650
O         -2.63750       30.30170       -7.02190
C         -0.86080       32.24290       -6.38350
C          0.11600       33.16560       -5.99550
C          0.36680       33.39190       -4.66230
C          0.71010       33.54940       -1.49650
C          1.86470       34.21980       -1.89150
C          2.47490       34.81460       -0.76270
C          1.61380       34.49200        0.39170
C          0.57450       33.73490       -0.05680
C          1.82280       34.90390        1.72300
N          1.97780       35.23050        2.81810
C          3.66820       35.52510       -0.73620
C          4.36410       36.02570        0.39010
C          5.55070       36.61460       -0.02780
C          5.60680       36.51550       -1.48300
C          4.49160       35.86950       -1.91810
C          4.16110       35.60020       -3.26080
N          3.88980       35.38580       -4.36160
C          6.53580       37.18880        0.81270
C          7.72550       37.69060        0.36490
C          8.72660       38.24200        1.20220
S          8.50690       38.22310        2.92130
C         10.05610       38.84650        3.22010
C         10.76140       39.08330        2.05360
C          9.99060       38.77020        0.87280
C         10.62870       39.00310       -0.37530
N          9.94230       38.91620       -1.65570
O          8.81410       39.33520       -1.72090
O         10.56700       38.47710       -2.58590
C         11.93880       39.41900       -0.44180
C         12.67820       39.68850        0.72560
C         12.09630       39.54950        1.95430
H        -18.91760        4.60570      -19.19970
H        -16.54590        3.65920      -18.49000
H        -19.14310        7.11370      -18.31920
H        -14.62980        7.62790      -16.17110
H        -12.02560        4.15810      -16.28310
H        -11.03070        6.28830      -15.16160
H        -13.01090        8.62690      -14.90780
H         -6.75670        7.24070      -15.16140
H         -5.83840        8.49720      -13.22560
H         -7.25640       10.06400      -11.99500
H         -7.68760       11.78690      -11.27900
H        -12.02290       11.92480      -11.12670
H         -9.49500       15.15370       -8.13890
H         -5.17000       15.10120       -8.55430
H         -8.17600       16.88340       -6.63890
H         -5.22810       17.09830       -7.48860
H         -9.22120       18.35070       -2.64470
H         -8.77600       20.74550       -2.16340
H         -6.92780       21.89780       -3.26990
H         -5.58090       23.17210       -3.60810
H         -3.16700       21.67510       -6.89380
H         -2.35330       26.43520       -5.42840
H         -4.46980       27.73490       -1.86400
H         -1.88160       28.88220       -4.68280
H         -2.99110       29.55020       -1.89260
H         -1.12150       32.12490       -7.42850
H          0.63580       33.74020       -6.75230
H          1.05880       34.17410       -4.38170
H          2.29000       34.22700       -2.87870
H         -0.23980       33.34110        0.53210
H          4.03770       35.93720        1.41360
H          6.39930       36.90450       -2.10340
H          6.31510       37.20950        1.87690
H          7.93760       37.65160       -0.69490
H         10.40490       39.00290        4.22710
H         12.38980       39.57370       -1.41490
H         13.70250       40.02810        0.63230
H         12.64150       39.78090        2.86200
