186
630_1035_01010101.out	Energy:   -5336.7907231
C        -10.75950       -0.91110       13.57050
C         -9.75290       -0.26840       12.93720
C        -10.26010        0.29440       11.69530
C        -11.68460       -0.10280       11.63680
C        -11.96630       -0.80540       12.76840
C        -12.59450        0.20740       10.60770
N        -13.35790        0.43910        9.77520
C         -9.59360        1.06620       10.78740
C        -10.09310        1.58570        9.53880
C         -9.13290        2.36310        8.95070
C         -7.96250        2.37010        9.82060
C         -8.20790        1.57660       10.90040
C         -7.32810        1.33240       11.96670
N         -6.61280        1.16860       12.85970
C         -9.22430        2.97100        7.64400
C         -8.44470        3.96040        7.18520
C         -8.49230        4.48020        5.77310
C         -9.66150        3.85410        4.99590
O        -10.81070        4.15090        5.08450
O         -9.18900        2.89540        4.18160
C         -7.77290        2.75110        4.25790
C         -7.30150        4.08130        4.87300
C         -5.90460        4.01710        5.47790
C         -5.70320        2.86190        6.45280
C         -6.13040        1.50840        5.88920
C         -7.44650        1.48460        5.08400
O         -7.28830        0.38590        4.18720
C         -6.01390       -0.00990        4.04440
O         -5.65660       -0.90250        3.34500
C         -5.12510        0.88860        4.91680
C         -3.98260        0.16550        5.54950
C         -3.03250       -0.56660        4.90450
C         -2.07950       -1.05410        5.87440
C         -2.55870       -0.57240        7.18700
C         -3.69750        0.15020        6.97200
C         -2.00730       -0.84130        8.45100
N         -1.59180       -1.04430        9.50900
C         -0.95110       -1.79720        5.66980
C         -0.02010       -2.21740        6.67910
C          0.88900       -3.07670        6.13010
C          0.57950       -3.21470        4.70570
C         -0.48820       -2.42770        4.40910
C         -1.06290       -2.23450        3.13710
N         -1.50040       -2.06830        2.08380
C          1.91660       -3.78030        6.86290
C          2.44900       -3.25640        7.97550
C          3.39920       -3.95150        8.90990
C          3.21020       -5.47020        8.81110
O          3.57040       -6.17120        7.91580
O          2.54400       -5.90640        9.88870
C          2.20810       -4.85820       10.79520
C          3.15910       -3.70820       10.41390
C          2.70260       -2.33490       10.91180
C          1.21730       -2.02340       10.73440
C          0.26900       -3.14940       11.13210
C          0.69900       -4.54950       10.65860
O         -0.00560       -5.43690       11.52800
C         -0.36510       -4.85630       12.67750
O         -0.90720       -5.41620       13.57750
C          0.04060       -3.36740       12.63280
C         -0.98030       -2.49030       13.28860
C         -1.56580       -2.71130       14.49710
C         -2.53650       -1.66760       14.74620
C         -2.43440       -0.74400       13.59700
C         -1.51180       -1.25270       12.73370
C         -3.07250        0.50350       13.49350
N         -3.53910        1.55740       13.44040
C         -3.42950       -1.58100       15.77710
C         -4.54540       -0.67540       15.89440
C         -5.23060       -0.95820       17.04580
C         -4.53730       -2.04720       17.73190
C         -3.47380       -2.43800       16.98290
C         -2.52830       -3.42380       17.33220
N         -1.75570       -4.21460       17.65800
C         -6.43110       -0.34900       17.56230
C         -7.17580        0.54610       16.89730
C         -8.45140        1.11000       17.45100
C         -9.61850        0.48100       16.66730
O         -9.99290       -0.64700       16.74720
O        -10.14970        1.39750       15.85040
C         -9.47030        2.64950       15.89530
C         -8.67000        2.61480       17.21610
C         -7.40170        3.48090       17.21340
C         -7.42440        4.50110       16.07490
C         -7.42810        3.76720       14.73270
C         -8.59920        2.76330       14.63330
O         -9.42060        3.19460       13.55060
C         -8.92630        4.22630       12.87300
O         -9.41370        4.69600       11.89300
C         -7.61730        4.70590       13.53760
C         -6.54490        4.72910       12.49400
C         -6.57010        5.52770       11.39170
C         -5.43150        5.21460       10.55990
C         -4.69820        4.13860       11.26870
C         -5.37110        3.86870       12.42060
C         -3.51730        3.51100       10.82770
N         -2.55270        3.00370       10.44650
C         -5.08420        5.76300        9.35770
C         -3.97870        5.35870        8.53470
C         -3.96410        6.10730        7.39000
C         -5.06920        7.05970        7.45890
C         -5.75350        6.85620        8.61840
C         -6.88600        7.56990        9.05980
N         -7.80830        8.16640        9.40930
C         -3.04740        5.93440        6.28550
C         -2.34730        4.79810        6.16010
C         -1.41990        4.45250        5.03930
C         -1.99240        3.14130        4.47590
O         -2.98470        3.03560        3.82000
O         -1.25510        2.11470        4.90630
C         -0.14980        2.51400        5.72150
C          0.00120        4.02270        5.44860
C          0.68830        4.78950        6.57770
C          0.10340        4.51520        7.96090
C          0.04210        3.02920        8.31320
C         -0.44660        2.09430        7.18270
O          0.23500        0.85930        7.41480
C          1.27850        0.98070        8.24470
O          2.00160        0.07620        8.54330
C          1.38430        2.41840        8.71620
H        -10.70880       -1.41990       14.52110
H         -8.73120       -0.18970       13.26840
H        -12.92250       -1.22480       13.04180
H        -11.07440        1.38290        9.14220
H         -7.04510        2.90410        9.62030
H         -9.99870        2.55380        7.00650
H         -7.73900        4.46450        7.83930
H         -8.61170        5.56800        5.79810
H         -7.40010        2.61570        3.23570
H         -7.27120        4.81720        4.05920
H         -5.69770        4.95970        5.99110
H         -5.18350        3.92640        4.65870
H         -6.25210        3.04760        7.37790
H         -4.64260        2.81030        6.71810
H         -6.26500        0.81750        6.73120
H         -8.30580        1.25770        5.72680
H         -4.72530        1.64810        4.23150
H         -2.97490       -0.74310        3.84290
H         -4.28920        0.62120        7.74200
H         -0.06960       -1.91870        7.71120
H          1.14020       -3.82860        4.01740
H          2.20380       -4.76010        6.49570
H          2.21810       -2.23110        8.23480
H          4.42780       -3.69580        8.63310
H          2.40230       -5.22900       11.80920
H          4.11790       -3.91880       10.90630
H          3.28140       -1.55730       10.40590
H          2.94850       -2.28270       11.97820
H          1.00490       -1.76690        9.69640
H          0.98480       -1.13440       11.32660
H         -0.70480       -2.93440       10.67330
H          0.37650       -4.76240        9.63300
H          0.98630       -3.29610       13.18790
H         -1.39770       -3.55450       15.14630
H         -1.21830       -0.81140       11.79440
H         -4.80320        0.06700       15.15620
H         -4.84480       -2.45930       18.68110
H         -6.73510       -0.66540       18.55670
H         -6.91360        0.84260       15.88670
H         -8.55140        0.84100       18.50620
H        -10.23350        3.43630       15.88790
H         -9.34140        2.97730       18.00350
H         -6.51260        2.85160       17.10740
H         -7.32000        4.00280       18.17010
H         -6.53530        5.13370       16.13620
H         -8.30470        5.14550       16.16220
H         -6.49280        3.20620       14.64510
H         -8.23020        1.76220       14.37830
H         -7.80950        5.73490       13.86420
H         -7.32670        6.25500       11.14620
H         -5.07870        3.12740       13.14810
H         -3.27980        4.58560        8.80040
H         -5.29520        7.78950        6.69640
H         -2.96180        6.73530        5.55850
H         -2.51580        3.98880        6.86390
H         -1.41270        5.23590        4.27810
H          0.72620        1.95320        5.37300
H          0.62570        4.12930        4.55250
H          0.62660        5.86090        6.36840
H          1.74840        4.51510        6.57040
H         -0.89960        4.94260        8.02760
H          0.71620        5.02420        8.71030
H         -0.65690        2.91090        9.15290
H         -1.52120        1.88910        7.27240
H          2.23190        2.88300        8.20610
H          1.57020        2.45190        9.78920
