142
630_659_01010101.out	Energy:   -5803.8501201
C          5.13880        9.86380       14.53340
C          4.33980       10.56300       13.70810
C          3.35970        9.63340       13.13830
C          3.68010        8.31640       13.71750
C          4.73060        8.47870       14.53760
C          3.05370        7.06560       13.49870
N          2.54690        6.03700       13.31560
C          2.37660        9.95920       12.26860
C          1.40900        9.02420       11.71210
C          0.57790        9.68690       10.88280
C          0.98690       11.08500       10.86970
C          2.04510       11.26280       11.68160
C          2.66540       12.51720       11.88630
N          3.16590       13.55170       12.04760
C         -0.51970        9.10100       10.15270
C         -0.89350        7.81030       10.21280
C         -1.99860        7.28440        9.47810
S         -3.35780        8.26890        9.12710
C         -4.24930        7.02310        8.32140
C         -3.49590        5.86280        8.31200
C         -2.21920        6.00920        8.99210
C         -1.28770        4.96850        9.13090
C         -1.72240        3.76780        8.53480
C         -2.97210        3.63010        7.87140
F         -3.26630        2.43320        7.34030
C         -3.92110        4.65890        7.73280
C         -5.53310        7.35100        7.79260
C         -6.34380        8.25430        8.38850
C         -7.55380        8.41490        7.58860
C         -7.39900        7.48580        6.46300
C         -6.20670        6.87820        6.59340
C         -8.28080        7.24350        5.38750
N         -8.99900        7.03920        4.49860
C         -8.55270        9.27670        7.86970
C         -9.76640        9.46410        7.07620
C        -10.51100       10.43200        7.64730
C         -9.81320       10.89340        8.83800
C         -8.66100       10.22380        8.98780
C         -7.77250       10.46930       10.05910
N         -7.05460       10.68950       10.94400
C        -11.77100       10.88240        7.11560
C        -12.50800       11.84770        7.68370
C        -13.74620       12.22720        7.11250
S        -15.16670       11.46410        7.67560
C        -16.22180       12.33710        6.60220
C        -15.47290       13.25220        5.87790
C        -14.05340       13.17810        6.16750
C        -13.07940       13.98130        5.56040
C        -13.63290       14.88270        4.63130
C        -15.02440       14.95550        4.34430
F        -15.42500       15.86040        3.43790
C        -16.00970       14.14590        4.94050
C        -17.61880       12.04280        6.63530
C        -18.08880       10.80000        6.89080
C        -19.54800       10.83340        6.89640
C        -19.90800       12.22310        6.58300
C        -18.76630       12.91720        6.43960
C        -21.19000       12.79930        6.43370
N        -22.23850       13.28080        6.30820
C        -20.34340        9.78190        7.17610
C        -21.79750        9.82900        7.26100
C        -22.24760        8.61550        7.63730
C        -21.11300        7.72140        7.76880
C        -19.98870        8.39500        7.49560
C        -18.61630        7.75460        7.62550
N        -17.47780        7.22330        7.73320
C        -23.64060        8.34660        7.83930
C        -24.14270        7.16220        8.21870
C        -25.54810        6.95000        8.31500
S        -26.61910        7.75940        7.22260
C        -28.03080        7.05700        7.88770
C        -27.69970        6.17610        8.89350
C        -26.27370        6.11030        9.13910
C        -25.69140        5.29280       10.11970
C        -26.65210        4.53640       10.82430
C        -28.05260        4.60660       10.56960
F        -28.85850        3.83310       11.31310
C        -28.64880        5.42960        9.59800
C        -29.27040        7.44470        7.33370
C        -29.79940        6.80250        6.27370
C        -31.04690        7.47910        5.90930
C        -31.17760        8.60290        6.85320
C        -30.12100        8.56520        7.68240
C        -32.19780        9.57670        6.94270
N        -33.03460       10.37600        7.03040
C        -31.86860        7.10530        4.90670
C        -33.11140        7.77430        4.52900
C        -33.66450        7.10950        3.49400
C        -32.80110        5.98730        3.16600
C        -31.73810        5.97100        3.98420
C        -30.73040        4.98560        3.90880
N        -29.91270        4.16670        3.83460
C        -34.90750        7.50690        2.88590
C        -35.47660        6.88710        1.83960
C        -36.72150        7.31200        1.28170
S        -37.18710        8.99010        1.30910
C        -38.69250        8.69850        0.56190
C        -38.83570        7.37610        0.24100
C        -37.69940        6.57470        0.63120
C        -37.62160        5.19140        0.40250
C        -38.77350        4.69440       -0.24850
C        -39.88570        5.50740       -0.62060
F        -40.92010        4.90620       -1.22830
C        -39.97510        6.89110       -0.39450
H          5.92200       10.25620       15.07900
H          4.40490       11.57390       13.51090
H          5.17790        7.72830       15.08700
H          1.36610        8.01420       11.91960
H          0.53200       11.82960       10.31870
H         -1.06250        9.72310        9.53350
H         -0.35630        7.17040       10.81850
H         -0.38290        5.07140        9.61650
H         -1.10090        2.94540        8.58250
H         -4.82950        4.54070        7.25760
H         -6.13930        8.75140        9.26950
H         -5.82510        6.17830        5.93810
H        -10.01240        8.94190        6.22070
H        -10.15550       11.62960        9.47500
H        -12.12480       10.43970        6.25310
H        -12.17150       12.31530        8.53990
H        -12.07090       13.91930        5.77030
H        -12.99630       15.52380        4.13260
H        -17.01460       14.20380        4.71310
H        -17.50850        9.96260        7.05530
H        -18.71090       13.92450        6.22230
H        -22.38510       10.65450        7.06540
H        -21.16420        6.72460        8.03110
H        -24.30540        9.12010        7.68140
H        -23.49790        6.38900        8.44550
H        -24.67700        5.24960       10.30440
H        -26.32250        3.89740       11.56460
H        -29.66520        5.47690        9.42550
H        -29.39630        5.97830        5.80120
H        -29.94250        9.23180        8.44970
H        -33.50160        8.61660        4.97970
H        -32.97970        5.30340        2.41400
H        -35.39520        8.32560        3.28200
H        -34.99710        6.07380        1.42290
H        -39.40220        9.42430        0.37610
H        -36.81730        4.60610        0.67750
H        -38.81250        3.68650       -0.46700
H        -40.78270        7.47380       -0.66520
