190
630_337_01010101.out	Energy:   -6765.5630061
C        -10.66160       -7.71800       -3.23660
C        -11.54790       -6.78610       -2.79500
C        -10.90020       -5.49570       -2.78960
C         -9.52980       -5.73060       -3.27120
C         -9.40800       -7.07010       -3.53350
C         -8.52100       -4.76370       -3.43520
N         -7.68220       -3.98210       -3.57470
C        -11.43270       -4.27970       -2.41750
C        -10.77070       -3.02610       -2.42740
C        -11.63750       -2.03500       -1.98650
C        -12.91340       -2.67270       -1.67710
C        -12.80610       -4.00550       -1.92850
C        -13.82750       -4.96050       -1.75220
N        -14.68030       -5.72140       -1.59880
C        -11.26140       -0.68230       -1.89070
C        -12.01930        0.38710       -1.47570
C        -11.51250        1.69730       -1.43290
S        -12.48950        3.03150       -0.90510
C        -11.22080        4.19420       -1.13740
C        -10.05670        3.55240       -1.61700
C        -10.22170        2.15950       -1.78020
N         -9.20810        1.37960       -2.23060
C         -8.07630        1.97040       -2.50400
O         -7.04820        1.25390       -2.94910
C         -7.27790       -0.15840       -3.09740
C         -6.00920       -0.81270       -3.60840
C         -7.90930        3.39780       -2.33340
O         -6.72070        3.91860       -2.63300
C         -6.56560        5.33180       -2.45820
C         -5.14290        5.68920       -2.84880
N         -8.87670        4.16390       -1.90200
C        -11.41670        5.55350       -0.85650
C        -12.58460        6.14710       -0.35610
C        -12.37390        7.52420       -0.20070
C        -10.98780        7.78950       -0.64310
C        -10.43050        6.60570       -1.02880
C        -10.34270        9.04060       -0.66990
N         -9.79090       10.05400       -0.70320
C        -13.26880        8.48360        0.29100
C        -13.04160        9.85290        0.46940
C        -14.18960       10.45130        1.01640
C        -15.18690        9.40570        1.17820
C        -14.65260        8.22770        0.74880
C        -15.31200        6.98300        0.74490
N        -15.87200        5.97440        0.75050
C        -14.29220       11.80650        1.34640
C        -15.38780       12.41890        1.92920
C        -15.42920       13.76940        2.27840
S        -16.82700       14.44390        3.06220
C        -16.12140       16.02460        3.20170
C        -14.82620       16.02930        2.62810
C        -14.44050       14.77360        2.11520
N        -13.23030       14.58820        1.53350
C        -12.44480       15.63130        1.46800
O        -11.23940       15.52590        0.91490
C        -10.86690       14.23150        0.41860
C         -9.45830       14.32930       -0.13670
C        -12.84590       16.92040        1.98450
O        -11.98400       17.92780        1.85860
C        -12.39500       19.20560        2.35960
C        -11.29000       20.19780        2.04460
N        -14.00780       17.10990        2.55360
C        -16.80200       17.07050        3.83060
C        -18.09450       17.01440        4.38120
C        -18.40370       18.24860        4.96270
C        -17.22790       19.11920        4.74930
C        -16.28640       18.40750        4.06630
C        -17.09780       20.45990        5.15920
N        -16.96310       21.56010        5.47950
C        -19.58330       18.60990        5.63150
C        -19.86120       19.80090        6.31210
C        -21.16120       19.73770        6.84450
C        -21.72150       18.45120        6.46470
C        -20.78960       17.76130        5.74970
C        -20.96660       16.47400        5.20760
N        -21.14360       15.41760        4.77850
C        -21.85760       20.67550        7.61800
C        -21.33910       21.87630        8.06870
C        -22.04260       22.79240        8.85420
S        -21.26540       24.23240        9.44410
C        -22.67940       24.78400       10.28260
C        -23.74050       23.86830       10.09620
C        -23.38560       22.75460        9.30410
N        -24.27800       21.77050        9.02550
C        -25.47420       21.90880        9.53290
O        -26.41080       20.98810        9.31080
C        -26.04120       19.86420        8.50340
C        -27.25430       18.95810        8.39530
C        -25.83570       23.04710       10.34670
O        -27.08070       23.09330       10.81850
C        -27.43040       24.22320       11.62680
C        -28.87740       24.05170       12.05240
N        -24.98720       24.00190       10.61900
C        -22.67840       25.96790       11.03530
C        -21.59330       26.82060       11.26730
C        -22.00410       27.88100       12.09840
C        -23.43920       27.66070       12.37370
C        -23.82480       26.51810       11.73990
C        -24.28310       28.47270       13.15590
N        -25.00750       29.10980       13.78870
C        -21.23180       28.92610       12.60390
C        -21.64340       29.97510       13.45080
C        -20.54970       30.78420       13.75250
C        -19.39210       30.23250       13.06170
C        -19.78450       29.12690       12.36910
C        -18.94850       28.31940       11.57450
N        -18.24020       27.67490       10.93100
C        -20.57310       31.92330       14.58870
C        -19.48040       32.67650       14.92200
C        -19.51140       33.80320       15.77020
S        -20.95620       34.43850       16.49370
C        -20.10130       35.68610       17.29490
C        -18.74970       35.63810       17.03390
C        -18.40430       34.56440       16.16120
N        -17.11950       34.33070       15.77750
C        -16.23040       35.15200       16.26150
O        -14.94270       35.00780       15.95240
C        -14.60940       33.91850       15.08460
C        -13.10310       33.92580       14.89530
C        -16.57900       36.25030       17.15090
O        -15.57500       37.01890       17.57750
C        -15.92460       38.09330       18.45640
C        -14.64300       38.81570       18.83130
N        -17.79830       36.49220       17.52860
H        -10.84030       -8.77620       -3.35540
H        -12.56850       -6.95700       -2.49400
H         -8.52540       -7.57090       -3.90180
H         -9.75030       -2.86210       -2.73140
H        -13.78880       -2.15870       -1.31010
H        -10.23720       -0.48790       -2.19030
H        -13.04960        0.24000       -1.16570
H         -8.10990       -0.30840       -3.79830
H         -7.57100       -0.57200       -2.12320
H         -5.72990       -0.39380       -4.57440
H         -6.18770       -1.88300       -3.71790
H         -5.19210       -0.65410       -2.90570
H         -6.77000        5.58820       -1.40980
H         -7.29790        5.85390       -3.08900
H         -4.43650        5.15160       -2.21740
H         -4.98810        6.76040       -2.72780
H         -4.96150        5.41610       -3.88770
H        -13.49300        5.61560       -0.12460
H         -9.43100        6.45160       -1.40300
H        -12.12970       10.37870        0.23890
H        -16.18160        9.54900        1.57160
H        -13.41820       12.41420        1.13530
H        -16.27060       11.82680        2.15230
H        -11.58230       13.92790       -0.35740
H        -10.92210       13.50520        1.24050
H         -9.42330       15.05980       -0.94400
H         -9.15300       13.35640       -0.51940
H         -8.76760       14.63910        0.64670
H        -12.56820       19.12800        3.44150
H        -13.34030       19.49220        1.87910
H        -10.36130       19.88560        2.52070
H        -11.56740       21.18420        2.41320
H        -11.13110       20.24920        0.96820
H        -18.72860       16.14340        4.36380
H        -15.31530       18.75320        3.74970
H        -19.18270       20.63130        6.41830
H        -22.71430       18.11630        6.72520
H        -22.87530       20.41780        7.89370
H        -20.31290       22.13200        7.82160
H        -25.19490       19.34600        8.97480
H        -25.71840       20.22190        7.51610
H        -27.56160       18.62680        9.38650
H        -27.00910       18.08860        7.78720
H        -28.08180       19.49600        7.93420
H        -27.29140       25.14120       11.03990
H        -26.75930       24.26460       12.49540
H        -29.52090       24.00220       11.17480
H        -29.17970       24.89530       12.67110
H        -28.99170       23.13030       12.62230
H        -20.59950       26.67370       10.87720
H        -24.80950       26.07910       11.74350
H        -22.64510       30.12700       13.81780
H        -18.39370       30.64080       13.09510
H        -21.53940       32.20260       15.00170
H        -18.49650       32.41960       14.53860
H        -20.61960       36.39530       17.91810
H        -15.13580       34.04770       14.12900
H        -14.95310       32.97970       15.54020
H        -12.78740       34.86920       14.45130
H        -12.81160       33.10640       14.23990
H        -12.60610       33.80880       15.85770
H        -16.42860       37.68270       19.34220
H        -16.62820       38.76280       17.94260
H        -13.96000       38.12860       19.32940
H        -14.87030       39.64340       19.50170
H        -14.15770       39.20290       17.93610
