158
630_1128_01010101.out	Energy:   -7015.1877954
C          3.68730        0.98110       -2.65090
C          3.37030        1.83660       -1.64960
C          2.37560        2.77460       -2.13500
C          2.12220        2.39580       -3.53820
C          2.91370        1.32300       -3.82810
C          1.22040        3.02370       -4.41830
N          0.48500        3.52470       -5.15190
C          1.78550        3.80110       -1.44240
C          0.80720        4.72930       -1.91970
C          0.46060        5.59870       -0.90080
C          1.24110        5.22880        0.27960
C          2.03210        4.16910       -0.02830
C          2.92920        3.53710        0.85750
N          3.65390        3.04560        1.60720
C         -0.48320        6.65140       -0.99990
C         -0.83310        7.45700        0.05080
C         -1.76830        8.52640        0.07680
C         -2.50420        9.05030       -1.02380
C         -3.43250       10.13350       -0.86630
N         -4.17020       10.53480       -1.92260
C         -3.98160        9.97860       -3.09710
C         -3.00050        8.95850       -3.26970
N         -2.30880        8.51140       -2.24640
C         -2.76300        8.38600       -4.55450
N         -2.59520        7.93850       -5.60070
C         -4.79680       10.39900       -4.18990
N         -5.44820       10.70530       -5.08710
C         -3.66280       10.77710        0.38780
C         -2.93730       10.24630        1.49300
C         -2.01010        9.15560        1.33160
N         -1.41210        8.81690        2.46400
S         -1.95800        9.79480        3.65440
N         -2.98160       10.68530        2.74250
C         -4.55610       11.87520        0.53620
C         -5.04540       12.72600       -0.45480
C         -5.92560       13.66720        0.12150
C         -5.97680       13.35720        1.56740
C         -5.14180       12.31030        1.80230
C         -6.73870       14.03960        2.53630
N         -7.35080       14.59450        3.34070
C         -6.62190       14.68390       -0.52380
C         -7.58890       15.54610        0.02970
C         -8.06400       16.40770       -0.96460
C         -7.34790       16.08870       -2.19510
C         -6.49470       15.05850       -1.95270
C         -5.61490       14.47270       -2.88540
N         -4.89300       14.01380       -3.65850
C         -9.05410       17.40100       -0.86390
C         -9.78500       17.62450        0.28420
C        -10.80100       18.58180        0.47170
C        -11.51710       18.60560        1.71120
C        -12.59920       19.50390        1.95620
N        -13.18530       19.52210        3.17060
C        -12.79400       18.66610        4.08890
C        -11.76110       17.72280        3.81690
N        -11.13950       17.72270        2.65770
C        -11.36470       16.77450        4.80620
N        -11.07380       16.02110        5.62520
C        -13.40790       18.72180        5.37580
N        -13.87270       18.75210        6.42740
C        -13.05350       20.43450        0.96840
C        -12.29520       20.46640       -0.24110
C        -11.20230       19.55470       -0.49100
N        -10.65710       19.73080       -1.68210
S        -11.44610       20.94080       -2.45420
N        -12.52130       21.27030       -1.26750
C        -14.19580       21.25260        1.16430
C        -15.22630       21.06460        2.09110
C        -16.18310       22.08890        1.95100
C        -15.68630       22.97620        0.87580
C        -14.52380       22.45410        0.40130
C        -16.31950       24.14420        0.40720
N        -16.82630       25.10000        0.00840
C        -17.37530       22.23330        2.65560
C        -18.30730       23.28680        2.58040
C        -19.37670       23.02350        3.44290
C        -19.11010       21.74190        4.08880
C        -17.91910       21.26600        3.63860
C        -17.32890       20.04230        4.01610
N        -16.87210       19.03250        4.33390
C        -20.49170       23.85730        3.63910
C        -21.56690       23.51910        4.43160
C        -22.73330       24.26830        4.70370
C        -23.00410       25.61330        4.30760
C        -24.22990       26.27120        4.65550
N        -24.47170       27.51550        4.19210
C        -23.55430       28.13430        3.48410
C        -22.30440       27.50900        3.20730
N        -22.06620       26.27760        3.60360
C        -21.28910       28.19480        2.47740
N        -20.48610       28.76810        1.88600
C        -23.84560       29.43570        2.97630
N        -24.05140       30.47970        2.53980
C        -25.24980       25.64300        5.43390
C        -24.99580       24.29260        5.80860
C        -23.76290       23.63390        5.46200
N        -23.69330       22.39570        5.92210
S        -25.06960       22.06570        6.74270
N        -25.79370       23.51640        6.52760
C        -26.43990       26.31780        5.82960
C        -26.66300       27.69000        5.90150
C        -27.98030       27.93420        6.36330
C        -28.60050       26.60560        6.55830
C        -27.67020       25.65920        6.26240
C        -29.91980       26.35550        6.98490
N        -30.99550       26.12720        7.33220
C        -28.57420       29.16130        6.61130
C        -29.90480       29.40770        7.03360
C        -30.09620       30.77640        7.17170
C        -28.83610       31.43410        6.83420
C        -27.92270       30.48780        6.49260
C        -26.58260       30.72140        6.12340
N        -25.48480       30.92760        5.83750
C        -31.26270       31.47850        7.56610
C        -32.45640       30.86520        7.83110
C        -33.68810       31.45920        8.23610
C        -33.91390       32.82880        8.53500
C        -35.21740       33.29910        8.92850
N        -35.41990       34.61580        9.21270
C        -34.40440       35.43400        9.12370
C        -33.10330       34.96780        8.74020
N        -32.88720       33.70420        8.46010
C        -32.00700       35.87520        8.65810
N        -31.13520       36.62370        8.59730
C        -34.60680       36.81580        9.42190
N        -34.73770       37.93410        9.65650
C        -36.31090       32.44350        9.03640
C        -36.11760       31.08890        8.75640
C        -34.81690       30.60080        8.36270
N        -34.81050       29.29470        8.13500
S        -36.31670       28.71820        8.39510
N        -37.03380       30.12200        8.80740
H          4.39590        0.16760       -2.60940
H          3.77580        1.84190       -0.65150
H          2.96720        0.80230       -4.77200
H          0.40330        4.74160       -2.91910
H          1.19370        5.72630        1.23610
H         -0.94200        6.79180       -1.97230
H         -0.36690        7.26740        1.01510
H         -4.78170       12.69220       -1.49750
H         -4.96050       11.84260        2.75630
H         -7.91640       15.52760        1.05600
H         -7.49480       16.59920       -3.13460
H         -9.25170       17.99410       -1.75080
H         -9.59270       16.98930        1.14510
H        -15.30120       20.24470        2.78380
H        -13.91350       22.86920       -0.38410
H        -18.21360       24.16430        1.96120
H        -19.75390       21.26140        4.80900
H        -20.48660       24.80510        3.11190
H        -21.55870       22.53770        4.90080
H        -25.94050       28.45610        5.67950
H        -27.81410       24.59160        6.30080
H        -30.64300       28.64300        7.21020
H        -28.68210       32.50210        6.85980
H        -31.17420       32.55630        7.64560
H        -32.51370       29.78550        7.71180
H        -37.27680       32.83170        9.33200
