110
630_519_01010101.out	Energy:   -3629.1323118
C         -6.26460        9.16990       12.58570
C         -6.50140       10.06950       11.60260
C         -5.84690        9.61690       10.38690
C         -5.18630        8.34530       10.74240
C         -5.44730        8.09530       12.05740
C         -4.42250        7.53580        9.88050
N         -3.79760        6.85840        9.18700
C         -5.84150       10.22970        9.16360
C         -5.20110        9.77330        7.96090
C         -5.44810       10.66910        6.94740
C         -6.27010       11.74880        7.49360
C         -6.50950       11.50390        8.80720
C         -7.26070       12.32350        9.67390
N         -7.87750       13.01470       10.35990
C         -5.02220       10.62590        5.58550
C         -4.22820        9.66150        5.05180
C         -3.83470        9.66220        3.68590
O         -4.24910       10.61110        2.82120
C         -3.66510       10.25260        1.66190
N         -2.94260        9.16070        1.81020
N         -3.05060        8.78730        3.08800
C         -3.85930       10.99180        0.46340
C         -4.64030       12.10860        0.27980
C         -4.56860       12.49850       -1.09600
C         -3.65700       11.53230       -1.74850
C         -3.24400       10.63970       -0.80860
C         -3.27640       11.53590       -3.10570
N         -2.95010       11.52240       -4.21130
C         -5.24000       13.53310       -1.70940
C         -5.23290       13.88150       -3.09510
C         -6.09850       14.93530       -3.30540
C         -6.67250       15.30700       -2.01320
C         -6.16850       14.48400       -1.05650
C         -6.47760       14.53700        0.31800
N         -6.74490       14.60270        1.43760
C         -6.40540       15.52320       -4.56390
C         -7.33510       16.49550       -4.76440
C         -7.62930       16.98730       -6.06400
O         -8.60350       17.89400       -6.27150
C         -8.59490       18.06210       -7.60730
N         -7.66940       17.31280       -8.17500
N         -7.06030       16.63430       -7.20160
C         -9.51900       18.91440       -8.26970
C        -10.51800       19.67830       -7.71220
C        -11.25310       20.31120       -8.76540
C        -10.60450       19.89230      -10.02760
C         -9.57100       19.06430       -9.71720
C        -10.97510       20.29730      -11.32600
N        -11.25890       20.61740      -12.39640
C        -12.37010       21.10870       -8.64660
C        -13.18720       21.63010       -9.69600
C        -14.24380       22.32830       -9.14820
C        -14.10000       22.28780       -7.69360
C        -12.99570       21.55980       -7.38240
C        -12.52310       21.29880       -6.08010
N        -12.15560       21.10250       -5.00520
C        -15.30560       22.93620       -9.87450
C        -16.33770       23.62570       -9.31810
C        -17.40300       24.16490      -10.08730
O        -17.48650       23.98820      -11.42190
C        -18.63090       24.61780      -11.74890
N        -19.20360       25.14760      -10.68680
N        -18.42920       24.86050       -9.63720
C        -19.11410       24.64710      -13.08590
C        -18.54570       24.07010      -14.19650
C        -19.38490       24.32790      -15.32960
C        -20.52410       25.12350      -14.82110
C        -20.34990       25.30570      -13.48410
C        -21.60450       25.60930      -15.58510
N        -22.49510       26.01980      -16.19120
C        -19.18790       23.91450      -16.62710
C        -20.02520       24.15430      -17.76230
C        -19.46690       23.56320      -18.87360
C        -18.22280       22.91410      -18.45930
C        -18.04580       23.11400      -17.12750
C        -16.96230       22.63700      -16.36220
N        -16.06560       22.23520      -15.75930
C        -20.00780       23.57940      -20.19340
C        -19.43650       22.99400      -21.27450
C        -20.04190       23.05250      -22.56650
O        -19.46270       22.46910      -23.63910
C        -20.32070       22.74420      -24.62650
N        -21.33930       23.43080      -24.22280
N        -21.16790       23.63430      -22.89550
H         -6.61330        9.21650       13.60630
H         -7.07650       10.97700       11.68090
H         -5.10910        7.24320       12.62710
H         -4.62780        8.86410        7.88640
H         -6.61570       12.59650        6.92150
H         -5.36460       11.43200        4.94270
H         -3.84800        8.83810        5.64540
H         -5.22280       12.60050        1.04080
H         -2.57650        9.80320       -0.94590
H         -4.65810       13.37940       -3.85590
H         -7.37710       16.10910       -1.85600
H         -5.87010       15.13680       -5.42770
H         -7.91140       16.91670       -3.94890
H        -10.73270       19.76330       -6.65990
H         -8.88890       18.58070      -10.39920
H        -13.01490       21.47540      -10.74860
H        -14.77080       22.75810       -6.99120
H        -15.28260       22.81800      -10.95450
H        -16.40670       23.79400       -8.24970
H        -17.62520       23.51080      -14.21330
H        -20.99650       25.83930      -12.80490
H        -20.94790       24.71070      -17.74170
H        -17.56170       22.36700      -19.11370
H        -20.95030       24.10450      -20.32700
H        -18.49740       22.45660      -21.21060
H        -20.11480       22.39620      -25.62360
