202
630_28_01010101.out	Energy:   -5352.2904620
C         -3.63040        2.98540        6.72430
C         -4.41660        3.89080        7.33230
C         -4.26060        5.17010        6.63290
C         -3.29460        4.90730        5.54650
C         -2.93850        3.61490        5.62480
C         -2.78790        5.79480        4.57230
N         -2.36260        6.52100        3.76780
C         -4.88970        6.32110        6.94860
C         -4.73470        7.58780        6.23990
C         -5.52250        8.51260        6.82090
C         -6.18900        7.88960        7.95350
C         -5.84140        6.59430        8.03290
C         -6.34900        5.71580        9.01570
N         -6.77630        5.00480        9.82710
C         -5.60230        9.89440        6.42910
C         -5.45200       10.34030        5.17030
C         -5.57910       11.75310        4.78940
C         -6.43650       12.60890        5.49330
C         -6.55810       13.92650        5.09810
C         -5.78830       14.41850        4.02220
C         -6.03140       15.85170        3.89010
C         -6.88340       16.22430        4.85810
C         -7.30490       15.07550        5.65820
C         -8.24720       15.10160        6.62630
C         -8.96110       13.95060        7.18310
C         -9.95120       14.35040        7.99630
C         -9.90980       15.80350        8.06250
C         -8.86060       16.29140        7.26470
C         -8.55130       17.64280        7.29060
C         -9.35690       18.50890        8.03660
C        -10.43940       18.01860        8.77880
C        -10.71480       16.65090        8.80810
C         -4.94120       13.58740        3.28720
C         -4.85880       12.24020        3.67900
C         -4.13890       14.06110        2.15650
C         -4.56080       14.04100        0.87490
C         -3.48770       14.56130        0.01730
C         -2.39700       14.93000        0.93740
C         -2.79460       14.61370        2.18760
C         -1.13950       15.51280        0.64430
N         -0.11090       15.98950        0.40750
C         -3.53370       14.65640       -1.33070
C         -2.47890       15.20390       -2.18560
C         -2.89530       15.16240       -3.46640
C         -4.21780       14.56200       -3.49810
C         -4.60760       14.25010       -2.25050
C         -5.83090       13.60170       -1.96530
N         -6.83770       13.06680       -1.74680
C         -2.10440       15.63300       -4.57080
C         -2.52150       16.59520       -5.40530
C         -1.68140       17.06550       -6.50620
C         -1.78720       16.45120       -7.76220
C         -1.00320       16.90250       -8.81220
C         -0.09300       17.96190       -8.58700
C          0.62180       18.25180       -9.82260
C          0.17660       17.41120      -10.76720
C         -0.85210       16.50790      -10.24450
C         -1.49740       15.55060      -10.95570
C         -2.56560       14.67540      -10.46160
C         -3.00690       13.84770      -11.41880
C         -2.24510       14.12500      -12.62220
C         -1.31160       15.15250      -12.38380
C         -0.47500       15.54180      -13.41920
C         -0.59090       14.92290      -14.67160
C         -1.53150       13.91060      -14.88990
C         -2.36880       13.50000      -13.85590
C          0.04110       18.57780       -7.33940
C         -0.77050       18.11440       -6.29650
C          0.99340       19.65830       -7.08180
C          0.70640       20.97050       -7.21680
C          1.90410       21.74810       -6.85920
C          2.92270       20.75350       -6.50980
C          2.36920       19.53280       -6.63410
C          4.37370       20.91910       -6.08860
N          5.57750       21.05650       -5.73910
C          1.99380       23.09280       -6.85000
C          3.17890       23.86340       -6.47970
C          2.86720       25.17310       -6.53390
C          1.49590       25.30120       -6.99160
C          0.96040       24.08390       -7.17630
C         -0.36760       23.88880       -7.60450
N         -1.46610       23.74250       -7.95780
C          3.80240       26.21890       -6.23790
C          3.44040       27.42260       -5.77020
C          4.41580       28.45700       -5.41780
C          4.04740       29.80520       -5.52830
C          4.94420       30.78660       -5.13760
C          6.23150       30.41630       -4.68560
C          7.00220       31.61270       -4.37970
C          6.23260       32.67760       -4.64560
C          4.91110       32.27340       -5.13150
C          3.90030       33.11930       -5.43650
C          2.50060       32.75570       -5.66740
C          1.73700       33.84710       -5.82500
C          2.60600       35.00940       -5.74170
C          3.93700       34.60400       -5.53390
C          4.94220       35.55960       -5.53680
C          4.60020       36.91190       -5.65930
C          3.26470       37.30320       -5.81500
C          2.25360       36.34500       -5.87250
C          6.62260       29.08470       -4.58070
C          5.68860       28.11000       -4.92950
C          7.94450       28.65680       -4.13890
C          8.25540       28.40570       -2.85100
C          9.65310       27.96450       -2.79260
C         10.12490       27.96940       -4.18950
C          9.10210       28.36950       -4.96650
C         11.39460       27.61840       -4.70420
N         12.43500       27.33790       -5.13540
C         10.32360       27.63240       -1.66800
C         11.72250       27.21610       -1.60830
C         12.06220       26.98890       -0.32280
C         10.87880       27.21000        0.49450
C          9.85060       27.60220       -0.27750
C          8.56740       27.89940        0.23430
N          7.51760       28.13980        0.66700
C         13.35550       26.52790        0.12270
C         14.50320       26.83190       -0.50310
C         15.80800       26.38010       -0.02950
C         16.52400       27.16470        0.88610
C         17.77340       26.73840        1.30740
C         18.26790       25.49920        0.86050
C         19.52660       25.19650        1.52200
C         19.80340       26.21230        2.35580
C         18.77610       27.25640        2.27250
C         18.79660       28.44970        2.90720
C         17.93820       29.59750        2.60330
C         18.26560       30.65990        3.35200
C         19.36000       30.26200        4.22100
C         19.70360       28.91690        3.98670
C         20.66420       28.31450        4.78360
C         21.31930       29.08090        5.75610
C         20.99640       30.43120        5.94750
C         19.99870       31.03130        5.18170
C         17.57670       24.71630       -0.05200
C         16.33870       25.17070       -0.50550
H         -3.53620        1.99550        7.00040
H         -5.02360        3.71600        8.14840
H         -2.27130        3.14310        4.99450
H         -4.12100        7.74840        5.42580
H         -6.83330        8.37110        8.60010
H         -5.78800       10.59220        7.16640
H         -5.23550        9.65310        4.43150
H         -6.97330       12.25710        6.30140
H         -5.61930       16.47180        3.17540
H         -7.19920       17.19390        5.01670
H         -8.73370       12.96510        6.97800
H        -10.62130       13.73750        8.48650
H         -7.73870       18.00410        6.76700
H         -9.15180       19.52030        8.04050
H        -11.03710       18.67330        9.30730
H        -11.49700       16.28010        9.37000
H         -4.25870       11.59390        3.14300
H         -5.48450       13.71420        0.55090
H         -2.22780       14.74480        3.04000
H         -1.56720       15.56240       -1.86100
H         -4.77480       14.39920       -4.35150
H         -1.17540       15.21180       -4.72770
H         -3.45510       17.01300       -5.26820
H         -2.44440       15.66830       -7.90380
H          1.34470       18.97740       -9.94880
H          0.51610       17.40140      -11.74170
H         -2.93190       14.69450       -9.49700
H         -3.75280       13.14170      -11.31830
H          0.22800       16.28210      -13.26870
H          0.02670       15.21830      -15.44380
H         -1.60500       13.46740      -15.81900
H         -3.06310       12.75070      -14.00260
H         -0.69870       18.54850       -5.36300
H         -0.19920       21.36210       -7.51940
H          2.85060       18.64080       -6.44010
H          4.09780       23.47130       -6.22080
H          1.00530       26.19500       -7.15130
H          4.80620       26.03580       -6.39280
H          2.43570       27.62810       -5.65420
H          3.11860       30.06390       -5.89650
H          7.96970       31.63680       -4.02150
H          6.53300       33.65730       -4.52360
H          2.14780       31.78660       -5.70420
H          0.71650       33.85950       -5.97780
H          5.93100       35.27720       -5.44960
H          5.34170       37.62920       -5.63440
H          3.02790       38.30500       -5.88750
H          1.26880       36.62190       -6.00880
H          5.93620       27.11330       -4.82740
H          7.61910       28.50660       -2.04470
H          9.13530       28.45870       -5.99410
H         12.35090       27.11240       -2.42030
H         10.83520       27.08410        1.51790
H         13.39980       25.93420        0.96570
H         14.46150       27.41050       -1.35660
H         16.12570       28.04790        1.24150
H         20.10330       24.35310        1.37710
H         20.62930       26.25300        2.97330
H         17.17980       29.58910        1.90350
H         17.82140       31.59070        3.31750
H         20.89350       27.31560        4.66230
H         22.05020       28.64500        6.34000
H         21.49980       30.98380        6.65900
H         19.74240       32.02050        5.32560
H         17.96780       23.82170       -0.38640
H         15.80950       24.61470       -1.19520
