186
630_187_01010101.out	Energy:   -6068.5739779
C        -34.83530        3.66260       14.26750
C        -33.94030        3.99530       13.30550
C        -33.40740        5.30860       13.60130
C        -34.08190        5.74640       14.84140
C        -34.93120        4.75170       15.22380
C        -33.90390        6.98560       15.48640
N        -33.77840        8.00310       16.01400
C        -32.46520        6.01330       12.88770
C        -31.90760        7.28290       13.21110
C        -30.99660        7.65150       12.22060
C        -30.97460        6.58270       11.22790
C        -31.83120        5.60120       11.61290
C        -32.07980        4.40580       10.90650
N        -32.26340        3.43920       10.30660
C        -30.22910        8.82560       12.12290
C        -30.15500        9.78890       13.11540
C        -29.45440       10.99500       13.03280
C        -28.97110       11.77100       14.12080
N        -29.13880       11.53200       15.51360
O        -28.65150       12.34080       16.26740
O        -29.74900       10.54880       15.86890
C        -28.17810       12.81410       13.62510
C        -28.15720       12.73840       12.22960
C        -28.94940       11.66210       11.81770
C        -29.36490       11.38110       10.48970
C        -30.64800       10.98740       10.10210
C        -30.71990       10.98460        8.70310
C        -29.48620       11.36390        8.18020
N        -29.24150       11.27180        6.77870
O        -28.10030       11.19900        6.38300
O        -30.21320       11.23430        6.06150
C        -28.58050       11.63510        9.26580
C        -27.25050       12.00710        9.31140
C        -26.45570       12.53500        8.27990
C        -25.13400       12.89730        8.44340
C        -24.32840       13.52810        7.44140
C        -23.08230       13.79910        7.96230
C        -23.07810       13.28680        9.36010
C        -24.29860       12.75450        9.62780
C        -21.97250       13.30430       10.23470
N        -21.07120       13.29420       10.95330
C        -21.99850       14.47500        7.34340
C        -20.85930       14.97020        7.94090
C        -20.06170       15.63360        6.95310
C        -20.75740       15.49180        5.68410
C        -21.91930       14.82060        5.89970
C        -22.87900       14.48820        4.92230
N        -23.65430       14.22490        4.11120
C        -18.87320       16.31310        7.12520
C        -18.31650       16.60200        8.38600
C        -17.14990       17.29710        8.62950
C        -16.96790       18.16180        9.77210
N        -17.75890       18.25010       10.95250
O        -17.46460       19.12170       11.73640
O        -18.65790       17.45730       11.12170
C        -15.97780       19.08650        9.47200
C        -15.41450       18.76200        8.22840
C        -16.02140       17.60630        7.72610
C        -15.56180       16.79800        6.65390
C        -16.17660       15.65010        6.14140
C        -15.60410       15.32470        4.90240
C        -14.60050       16.23940        4.61770
N        -13.79840       16.15100        3.44400
O        -14.09600       15.29000        2.64980
O        -12.88780       16.93320        3.29280
C        -14.42340       17.10120        5.76260
C        -13.26250       17.80050        6.02360
C        -12.74380       18.09380        7.30030
C        -11.61850       18.85610        7.53000
C        -10.85800       19.63860        6.60100
C         -9.84240       20.27920        7.27490
C         -9.94760       19.87900        8.70510
C        -11.00920       19.04230        8.83750
C         -9.09250       20.28790        9.74850
N         -8.40570       20.60130       10.61950
C         -8.86610       21.17040        6.75190
C         -7.83780       21.79250        7.42200
C         -7.09420       22.60890        6.50350
C         -7.72810       22.45590        5.20250
C         -8.78450       21.61140        5.33400
C         -9.67070       21.24430        4.30030
N        -10.39140       20.97280        3.44280
C         -6.02490       23.40340        6.84460
C         -5.29820       24.17440        5.91010
C         -4.29420       25.08260        6.13740
C         -3.65170       25.55550        7.35160
N         -4.10450       25.49010        8.70160
O         -3.29760       25.74710        9.56160
O         -5.26720       25.22680        8.91460
C         -2.51110       26.24690        7.01020
C         -2.39130       26.27340        5.59430
C         -3.46340       25.61080        5.03780
C         -3.75130       25.42310        3.64050
C         -4.98230       25.56340        3.03400
C         -4.83270       25.35900        1.63970
C         -3.50880       25.08070        1.36130
N         -3.10740       24.71500        0.04320
O         -2.06010       24.12980       -0.11690
O         -3.87160       24.99050       -0.85070
C         -2.75490       25.11120        2.59840
C         -1.42960       24.92770        2.92010
C         -0.29590       24.79410        2.09500
C          0.98540       24.79060        2.60830
C          1.39430       24.97050        3.96650
C          2.77470       24.96280        4.03590
C          3.27270       24.73520        2.65360
C          2.20190       24.64950        1.82120
C          4.62670       24.62070        2.27730
N          5.72810       24.51330        1.95570
C          3.57550       25.16000        5.18440
C          4.95770       25.11570        5.28520
C          5.33530       25.36950        6.63100
C          4.11210       25.58420        7.38690
C          3.05290       25.47110        6.54100
C          1.70030       25.66080        6.88500
N          0.59720       25.83590        7.17370
C          6.61040       25.41250        7.18660
C          7.79090       25.33550        6.45070
C          9.07580       25.35110        6.99120
C         10.26660       25.75050        6.33870
N         10.45000       26.09200        4.96840
O         11.56180       26.43050        4.63690
O          9.50260       26.02620        4.21880
C         11.30620       25.87400        7.29050
C         10.81450       25.55190        8.53550
C          9.45090       25.15110        8.40810
C          8.71900       24.46020        9.36380
C          7.75660       23.42220        9.09790
C          7.47570       22.77740       10.26250
C          8.19750       23.42790       11.33100
N          8.05130       23.02840       12.69150
O          8.64620       23.64510       13.54440
O          7.33080       22.08300       12.90780
C          8.95600       24.46190       10.81900
C          9.70560       25.44710       11.55820
C          9.85740       26.72230       11.18530
H        -35.40130        2.74610       14.33800
H        -33.64810        3.39490       12.46010
H        -35.57790        4.75570       16.08780
H        -32.15440        7.85750       14.08920
H        -30.36200        6.59250       10.33920
H        -29.62710        8.94080       11.22670
H        -30.61720        9.56400       14.07180
H        -27.68160       13.55130       14.23740
H        -27.70180       13.47020       11.58100
H        -31.47240       10.79030       10.76930
H        -31.58050       10.71950        8.10760
H        -26.77830       11.92740       10.28730
H        -26.90290       12.71890        7.31070
H        -24.68110       13.77260        6.45250
H        -24.60180       12.29220       10.55420
H        -20.60830       14.90090        8.98670
H        -20.39550       15.87680        4.74340
H        -18.40380       16.73740        6.24200
H        -18.94850       16.40100        9.24530
H        -15.69880       19.91770       10.10180
H        -14.64250       19.33830        7.74510
H        -16.95820       15.07940        6.61600
H        -15.88550       14.49940        4.26600
H        -12.61670       18.01450        5.17740
H        -13.21470       17.62710        8.16150
H        -11.06960       19.70930        5.54680
H        -11.35880       18.57570        9.74530
H         -7.59870       21.70250        8.46910
H         -7.41580       22.94580        4.29360
H         -5.73090       23.42430        7.88700
H         -5.53800       23.99480        4.86440
H         -1.82560       26.70710        7.70550
H         -1.62110       26.81120        5.06370
H         -5.90380       25.84920        3.51720
H         -5.62330       25.39700        0.90540
H         -1.22360       24.92610        3.98770
H         -0.41310       24.72530        1.02140
H          0.72510       25.10920        4.79870
H          2.22110       24.49130        0.75430
H          5.64290       24.90900        4.47950
H          4.07740       25.80920        8.44160
H          6.67490       25.57190        8.25940
H          7.71350       25.35920        5.36860
H         12.31500       26.17100        7.04710
H         11.39110       25.48740        9.44420
H          7.42930       23.13420        8.11180
H          6.83670       21.92050       10.40890
H         10.10030       25.11760       12.51410
H          9.41300       27.12500       10.28490
H         10.40800       27.42240       11.79710
