142
630_526_01010101.out	Energy:   -4031.6936898
C         14.10950      -21.39700      -19.34280
C         13.61750      -20.63530      -20.35350
C         12.79280      -19.58840      -19.78920
C         12.83230      -19.79150      -18.33200
C         13.62550      -20.87910      -18.08510
C         12.17450      -19.01270      -17.36300
N         11.63750      -18.38430      -16.55690
C         12.11190      -18.59870      -20.45780
C         11.31250      -17.56490      -19.88800
C         10.80970      -16.76300      -20.89410
C         11.29420      -17.29440      -22.16650
C         12.06820      -18.38460      -21.92490
C         12.71110      -19.16900      -22.90300
N         13.22220      -19.79210      -23.72790
C          9.97950      -15.61620      -20.77730
C          9.52890      -15.13490      -19.58150
C          8.72120      -13.98690      -19.42710
O          8.32330      -13.25060      -20.50450
C          7.59140      -12.21810      -20.05590
C          7.48330      -12.23730      -18.69840
C          8.21030      -13.38180      -18.27300
N          8.40050      -13.84840      -17.00050
C          7.97280      -13.24700      -15.85440
C          8.19310      -13.80730      -14.63490
C          7.79430      -13.21580      -13.40490
C          7.17460      -11.99530      -13.18570
C          6.99320      -11.80550      -11.79250
C          7.53540      -13.01610      -11.13620
C          8.01030      -13.84260      -12.10860
C          7.55890      -13.28050       -9.75360
N          7.59110      -13.52730       -8.62710
C          6.45180      -10.70320      -11.14830
C          6.31700      -10.48830       -9.75300
C          5.77210       -9.23190       -9.52950
C          5.53140       -8.61890      -10.82810
C          5.92890       -9.48550      -11.80210
C          5.84700       -9.25090      -13.18810
N          5.76810       -9.03480      -14.31890
C          5.52410       -8.65370       -8.25890
C          5.05450       -7.38930       -8.04670
C          4.85850       -6.84140       -6.75610
O          5.10160       -7.59270       -5.64350
C          4.86760       -6.83120       -4.56300
C          4.47190       -5.57780       -4.91810
C          4.45910       -5.56770       -6.33990
N          4.13190       -4.53100       -7.17530
C          3.85920       -3.25340       -6.78220
C          3.53820       -2.28070       -7.67580
C          3.27420       -0.92880       -7.32420
C          2.92430        0.09100       -8.19600
C          2.76480        1.29780       -7.46980
C          3.04360        0.96580       -6.05610
C          3.33910       -0.36250       -5.98430
C          3.00650        1.84880       -4.96010
N          2.98270        2.54170       -4.03760
C          2.41270        2.54930       -7.95480
C          2.27930        3.75740       -7.22490
C          1.88860        4.77300       -8.08610
C          1.76630        4.19900       -9.41770
C          2.08260        2.87480       -9.35790
C          2.08050        1.98270      -10.44690
N          2.06960        1.27610      -11.35900
C          1.62410        6.13940       -7.79940
C          1.80480        6.71540       -6.57510
C          1.53270        8.05640       -6.21180
O          1.90600        8.43450       -4.95130
C          1.56290        9.71650       -4.77060
C          0.95600       10.22400       -5.87800
C          0.92510        9.16210       -6.82350
N          0.37770        9.19800       -8.07860
C         -0.27040       10.26170       -8.63460
C         -0.83140       10.18830       -9.87070
C         -1.53850       11.26150      -10.48250
C         -1.78010       12.53460       -9.98760
C         -2.55340       13.26320      -10.92510
C         -2.78220       12.35400      -12.06750
C         -2.16910       11.16790      -11.78860
C         -3.49980       12.64960      -13.24140
N         -4.08670       12.86580      -14.21150
C         -3.02660       14.56310      -10.81090
C         -3.83590       15.27440      -11.72820
C         -4.10100       16.54120      -11.22460
C         -3.42830       16.65160       -9.93760
C         -2.78590       15.47970       -9.67410
C         -2.02660       15.19940       -8.52260
N         -1.40940       14.99330       -7.56920
C         -4.88480       17.57580      -11.79540
C         -5.54700       17.46260      -12.98610
C         -6.34520       18.47950      -13.55260
O         -6.49320       19.68590      -12.92360
C         -7.30530       20.44600      -13.67210
C         -7.71280       19.78620      -14.79300
C         -7.09850       18.50670      -14.73240
N         -7.19420       17.47460      -15.62210
C         -7.95980       17.47450      -16.77210
C         -8.01000       16.42850      -17.59500
H         14.75840      -22.25490      -19.43480
H         13.79800      -20.76720      -21.40760
H         13.85960      -21.29230      -17.11570
H         11.14360      -17.44100      -18.83140
H         11.05990      -16.87050      -23.13140
H          9.69900      -15.10090      -21.69070
H          9.79540      -15.64030      -18.65810
H          7.20140      -11.54010      -20.79820
H          6.95340      -11.53210      -18.08200
H          8.91590      -14.71360      -16.89970
H          7.45250      -12.30450      -15.97600
H          8.70940      -14.76220      -14.58500
H          6.88620      -11.28700      -13.94460
H          8.47200      -14.80800      -11.96630
H          6.60820      -11.18600       -8.98500
H          5.10360       -7.64030      -10.98580
H          5.74870       -9.27010       -7.39290
H          4.82580       -6.73180       -8.87960
H          5.01560       -7.29360       -3.60030
H          4.21750       -4.76900       -4.25540
H          4.12140       -4.72250       -8.16840
H          3.91860       -3.06570       -5.71690
H          3.48210       -2.53700       -8.73060
H          2.79810       -0.01560       -9.26090
H          3.58570       -0.90880       -5.08650
H          2.45120        3.85770       -6.16610
H          1.47540        4.75250      -10.29810
H          1.26740        6.73440       -8.63630
H          2.21130        6.11680       -5.76520
H          1.80200       10.15630       -3.81550
H          0.57930       11.22370       -6.00600
H          0.41160        8.35080       -8.62850
H         -0.31520       11.16170       -8.03360
H         -0.75440        9.25800      -10.42720
H         -1.44560       12.91800       -9.03790
H         -2.14590       10.29120      -12.41830
H         -4.19100       14.88060      -12.66600
H         -3.45170       17.52930       -9.30930
H         -4.96610       18.50600      -11.24100
H         -5.48630       16.54230      -13.55890
H         -7.52010       21.43730      -13.30540
H         -8.36500       20.16470      -15.56080
H         -6.67200       16.63320      -15.42010
H         -8.51850       18.38510      -16.95770
H         -7.45210       15.52140      -17.40820
H         -8.61730       16.45350      -18.48610
