186
630_775_01010101.out	Energy:   -5935.9421757
C         15.09100       12.34410        0.09750
C         14.29290       11.73130        1.01930
C         13.26070       11.00480        0.32890
C         13.50220       11.22240       -1.10080
C         14.60770       12.02860       -1.21960
C         12.74460       10.70610       -2.16580
N         12.12970       10.30140       -3.05470
C         12.23530       10.25330        0.88880
C         11.18870        9.58510        0.21930
C         10.37920        8.92750        1.15800
C         10.95750        9.17210        2.47130
C         12.03080        9.99850        2.33310
C         12.77000       10.54050        3.40250
N         13.33040       10.98290        4.30880
C          9.14730        8.28480        0.98780
C          8.35850        8.40800       -0.14950
C          7.01560        8.07390       -0.28050
C          6.26300        8.44100       -1.46140
C          4.97250        8.07540       -1.25950
C          4.86790        7.44400        0.05100
O          3.67920        6.98000        0.50910
C          2.62290        7.13160       -0.34420
C          2.72040        7.70870       -1.54750
O          3.88670        8.21030       -2.05310
C          6.09700        7.42480        0.64970
C          6.37610        6.84540        1.96840
C          6.77420        7.51110        3.08830
C          6.90490        6.56540        4.19800
O          7.30820        6.97860        5.41880
C          7.60990        8.31230        5.52440
C          7.48560        9.17690        4.51290
O          7.04790        8.82640        3.26660
C          6.58110        5.32820        3.75820
C          6.23590        5.43660        2.35090
C          5.87760        4.35330        1.57410
C          5.83090        2.98630        2.02850
C          5.35510        2.18430        1.02310
C          5.06730        3.06320       -0.13210
C          5.42600        4.33640        0.19560
C          4.48250        2.67330       -1.35280
N          3.95750        2.39010       -2.34010
C          5.20930        0.76260        1.00770
C          4.55800       -0.00330        0.07330
C          4.75180       -1.39370        0.38310
C          5.54720       -1.44260        1.59460
C          5.82500       -0.16400        1.98170
C          6.60540        0.22630        3.08720
N          7.24700        0.54830        3.99070
C          4.41460       -2.47350       -0.39900
C          3.67960       -2.37470       -1.60420
C          3.68810       -3.26240       -2.65040
C          2.78430       -3.15200       -3.78270
C          3.04190       -4.18790       -4.61420
C          4.14280       -4.97670       -4.06200
O          4.62770       -6.05280       -4.72590
C          3.99700       -6.35200       -5.90060
C          2.97950       -5.64170       -6.39680
O          2.46160       -4.53130       -5.78380
C          4.55780       -4.42240       -2.88860
C          5.65020       -4.92390       -2.06090
C          5.81030       -6.21990       -1.66760
C          6.98220       -6.32170       -0.79710
O          7.35210       -7.50780       -0.27180
C          6.56380       -8.57550       -0.60550
C          5.47920       -8.47810       -1.38160
O          5.04650       -7.30540       -1.93230
C          7.52860       -5.09090       -0.64900
C          6.75740       -4.17220       -1.46260
C          7.06880       -2.83560       -1.62430
C          7.92770       -2.08410       -0.75330
C          7.87960       -0.75700       -1.10490
C          7.04090       -0.65980       -2.31890
C          6.55520       -1.90120       -2.60690
C          6.84860        0.50790       -3.08270
N          6.71350        1.45440       -3.72760
C          8.45800        0.34860       -0.41340
C          8.20800        1.68940       -0.58930
C          9.02780        2.44410        0.31790
C          9.77720        1.47650        1.10240
C          9.43230        0.22550        0.69100
C          9.93050       -0.97680        1.23100
N         10.35590       -1.94830        1.68480
C          9.04840        3.80770        0.48300
C         10.01880        4.49920        1.25620
C         11.34620        4.16440        1.30890
C         12.05230        3.26790        0.40210
C         13.37030        3.35530        0.69140
C         13.55670        4.28010        1.80760
O         14.78710        4.51650        2.31770
C         15.81830        3.86560        1.69570
C         15.65020        3.03720        0.66120
O         14.42860        2.74190        0.11740
C         12.34630        4.79280        2.17380
C         12.06070        5.63660        3.32310
C         11.10210        5.41330        4.26680
C         11.28410        6.35580        5.37250
O         10.45030        6.34010        6.43170
C          9.49730        5.35520        6.42440
C          9.35690        4.46960        5.43240
O         10.13330        4.46920        4.30860
C         12.36730        7.13200        5.11730
C         12.87670        6.74730        3.81680
C         13.88830        7.39350        3.13510
C         14.82270        8.34010        3.67450
C         15.61920        8.81770        2.66190
C         15.16550        8.17390        1.40860
C         14.15320        7.31300        1.71250
C         15.67410        8.38020        0.11250
N         16.06860        8.50740       -0.96510
C         16.66630        9.78330        2.72710
C         17.27080       10.39660        1.65960
C         18.25850       11.32360        2.13450
C         18.24300       11.23530        3.58150
C         17.28960       10.33080        3.95150
C         16.97200        9.94820        5.26950
N         16.73810        9.63050        6.35360
C         19.05770       12.13080        1.35240
C         18.91070       12.16150       -0.04780
C         19.66090       12.85100       -0.96490
C         20.76840       13.75610       -0.74120
C         21.11690       14.26420       -1.94930
C         20.25300       13.69390       -2.98420
O         20.41160       14.03250       -4.28930
C         21.39830       14.94220       -4.54190
C         22.18330       15.46870       -3.59610
O         22.08440       15.15180       -2.26570
C         19.38100       12.82340       -2.40610
C         18.33040       12.03540       -3.03390
C         17.46350       12.43010       -4.03310
C         16.55050       11.32850       -4.31690
O         15.58180       11.45930       -5.23920
C         15.50180       12.66580       -5.85530
C         16.33640       13.68730       -5.58730
O         17.33720       13.61480       -4.67970
C         16.88060       10.26600       -3.50040
C         17.96860       10.68580       -2.71850
H         15.94580       12.97240        0.30020
H         14.40120       11.77660        2.09030
H         15.04910       12.37460       -2.14190
H         11.04460        9.57310       -0.84890
H         10.54590        8.79970        3.39820
H          8.75100        7.76590        1.85130
H          8.79670        8.92070       -1.00290
H          6.67960        8.93490       -2.32370
H          1.69900        6.73550        0.05540
H          1.88400        7.82900       -2.22250
H          7.95990        8.58500        6.51020
H          7.72090       10.22930        4.59440
H          6.55950        4.41670        4.33060
H          6.12880        2.66090        3.01130
H          5.36290        5.19000       -0.45620
H          4.00650        0.36050       -0.77770
H          5.87100       -2.35040        2.07960
H          4.76250       -3.45510       -0.09290
H          3.06120       -1.48920       -1.72890
H          2.03200       -2.38840       -3.89150
H          4.40810       -7.22600       -6.38750
H          2.47860       -5.87950       -7.32510
H          6.90890       -9.50380       -0.17120
H          4.85190       -9.32050       -1.63970
H          8.41130       -4.83100       -0.08940
H          8.42630       -2.49850        0.10690
H          5.94530       -2.16750       -3.45470
H          7.54270        2.13270       -1.31240
H         10.43460        1.72270        1.92090
H          8.24880        4.39780        0.04170
H          9.69020        5.38750        1.78980
H         11.59590        2.70230       -0.39210
H         16.78150        4.09790        2.12900
H         16.46390        2.52640        0.16490
H          8.86810        5.37390        7.30300
H          8.61610        3.68190        5.43140
H         12.75560        7.93550        5.72050
H         14.88560        8.61240        4.71530
H         13.58730        6.72820        1.00620
H         17.03590       10.22170        0.62410
H         18.87910       11.80720        4.23950
H         19.81040       12.75490        1.82470
H         18.09290       11.57520       -0.45280
H         21.20960       13.98160        0.21570
H         21.48030       15.19290       -5.59110
H         22.96400       16.18960       -3.79760
H         14.69990       12.72290       -6.57780
H         16.27320       14.65010       -6.07690
H         16.39710        9.30540       -3.44500
H         18.48430       10.05890       -2.00720
