154
630_1116_01010101.out	Energy:   -7152.7196733
C         -5.39670       17.81500      -10.89510
C         -4.54120       17.08720      -10.15540
C         -5.24100       16.66300       -8.93600
C         -6.59850       17.22670       -9.04960
C         -6.66530       17.90120      -10.21090
C         -7.68280       17.12640       -8.14830
N         -8.58260       17.04940       -7.41890
C         -4.71130       15.91270       -7.94590
C         -5.40900       15.47380       -6.73600
C         -4.55090       14.76320       -5.97760
C         -3.28330       14.68050       -6.68010
C         -3.35420       15.36120       -7.83430
C         -2.26350       15.47740       -8.72290
N         -1.35420       15.56560       -9.43780
C         -4.91250       14.14800       -4.73040
C         -4.03340       13.90850       -3.74320
C         -4.41070       13.31030       -2.50570
S         -5.97910       13.52150       -1.87380
C         -5.67940       12.56790       -0.47620
C         -4.37470       12.09340       -0.49130
C         -3.63170       12.57720       -1.62580
O         -2.32900       12.33980       -1.94810
C         -1.44240       12.39070       -0.83320
C         -1.18470       10.99420       -0.27720
C         -2.43550       10.14290       -0.11380
S         -3.72290       11.03870        0.78190
C         -6.74330       12.36830        0.44930
C         -7.69700       13.30110        0.66230
C         -8.63510       12.79680        1.65440
C         -8.14910       11.45850        2.01590
C         -7.03820       11.22640        1.29920
C         -8.68550       10.52460        2.92730
N         -9.11810        9.75150        3.67390
C         -9.71000       13.47180        2.10340
C        -10.65010       12.95750        3.08260
C        -11.60950       13.87740        3.29800
C        -11.31010       15.03590        2.46910
C        -10.19600       14.81100        1.75210
C         -9.65270       15.74920        0.84570
N         -9.21240       16.52550        0.10370
C        -12.72380       13.70690        4.19290
C        -12.95770       12.58930        4.89740
C        -14.07560       12.51190        5.75750
S        -15.55100       11.89330        5.16680
C        -16.32180       12.05460        6.69430
C        -15.44990       12.56650        7.64510
C        -14.16640       12.87280        7.08530
O        -13.06710       13.39590        7.69490
C        -13.36310       14.48120        8.56730
C        -13.47370       13.99060       10.00380
C        -14.28880       12.71150       10.16640
S        -15.90640       12.79540        9.34320
C        -17.67450       11.64780        6.79340
C        -18.01520       10.37750        7.09360
C        -19.47560       10.28240        7.07450
C        -19.96240       11.63530        6.74410
C        -18.88560       12.41900        6.57300
C        -21.28800       12.09840        6.59160
N        -22.37430       12.49160        6.46570
C        -20.18610        9.16470        7.31340
C        -21.64430        9.07560        7.30480
C        -21.99500        7.81590        7.62360
C        -20.79620        7.02940        7.80210
C        -19.72620        7.81370        7.62990
C        -18.33080        7.22500        7.75850
N        -17.17310        6.73660        7.86510
C        -23.34980        7.36770        7.68780
C        -23.74180        6.35870        8.47710
C        -25.10230        5.96190        8.54500
S        -25.45680        4.32660        8.90590
C        -27.14930        4.58840        8.83860
C        -27.44650        5.91550        8.57890
C        -26.26430        6.69300        8.36780
O        -26.17370        8.02720        8.11500
C        -27.07780        8.48590        7.11650
C        -28.29180        9.10840        7.78620
C        -28.83680        8.29100        8.95390
S        -29.10510        6.54350        8.53210
C        -27.99880        3.48280        9.06610
C        -28.40800        2.69610        8.05190
C        -29.27760        1.65980        8.60690
C        -29.32380        1.91180       10.06070
C        -28.56080        2.99000       10.30790
C        -30.01400        1.20420       11.07350
N        -30.58320        0.63000       11.90820
C        -29.89450        0.70330        7.88480
C        -30.77700       -0.31310        8.43710
C        -31.23670       -1.08750        7.43600
C        -30.65350       -0.60320        6.19270
C        -29.85970        0.45230        6.43910
C        -29.15530        1.14390        5.42940
N        -28.58190        1.70660        4.59010
C        -32.14580       -2.19340        7.58980
C        -32.68920       -2.59090        8.75260
C        -33.59990       -3.68190        8.84230
S        -33.50580       -5.03390        7.77620
C        -34.80840       -5.81950        8.53510
C        -35.31770       -5.09660        9.58760
C        -34.62870       -3.86260        9.75550
O        -34.86570       -2.94920       10.73060
C        -36.06150       -2.20530       10.49600
C        -37.35360       -3.00590       10.67260
C        -37.18800       -4.26220       11.51740
S        -36.64980       -5.70480       10.55660
H         -5.18050       18.24440      -11.80830
H         -3.56390       16.86560      -10.40160
H         -7.49640       18.40370      -10.55980
H         -6.39390       15.67510       -6.50260
H         -2.45060       14.17330       -6.34190
H         -5.89750       13.87630       -4.58570
H         -3.04500       14.16820       -3.88660
H         -1.87770       12.99770       -0.06710
H         -0.51100       12.80660       -1.15640
H         -0.72130       11.09600        0.68180
H         -0.56350       10.49160       -0.98890
H         -2.18530        9.25560        0.42940
H         -2.80770        9.89740       -1.08650
H         -7.75160       14.22100        0.19750
H         -6.47520       10.36280        1.34490
H        -10.59230       12.03450        3.54050
H        -11.87050       15.90190        2.43690
H        -13.38380       14.49320        4.29930
H        -12.31880       11.78350        4.81070
H        -14.29090       14.92650        8.27420
H        -12.57450       15.20170        8.50580
H        -13.93620       14.75970       10.58650
H        -12.47960       13.76540       10.32930
H        -14.44550       12.53680       11.21030
H        -13.73600       11.91790        9.70870
H        -17.36040        9.60720        7.30060
H        -18.91420       13.41970        6.32230
H        -22.29490        9.84750        7.09080
H        -20.76960        6.02250        8.02670
H        -24.05570        7.84070        7.10200
H        -23.04040        5.86030        9.04690
H        -27.38800        7.66140        6.50920
H        -26.59330        9.21610        6.50250
H        -29.06600        9.20950        7.05450
H        -27.97940       10.05120        8.18420
H        -29.77000        8.71500        9.26090
H        -28.10730        8.32360        9.73600
H        -28.15260        2.80560        7.05800
H        -28.39970        3.40390       11.23950
H        -31.01270       -0.42300        9.43580
H        -30.82470       -1.01060        5.26000
H        -32.39980       -2.72210        6.74070
H        -32.43640       -2.08490        9.61580
H        -35.17590       -6.73720        8.23870
H        -36.03270       -1.83470        9.49270
H        -36.08380       -1.42700       11.23000
H        -37.70650       -3.29440        9.70450
H        -38.04450       -2.37230       11.18840
H        -38.12780       -4.49020       11.97550
H        -36.42630       -4.06030       12.24130
