146
642_105_01010101.out	Energy:   -4267.5392663
C         -2.95360       12.05740      -12.72930
C         -2.19660       11.28360      -13.60460
C         -2.47140       10.89720      -14.93420
C         -1.55060       10.13160      -15.61200
C         -0.35180        9.73720      -14.99880
C         -0.05610       10.09980      -13.69200
C         -0.96370       10.86850      -12.97090
C         -0.94870       11.39830      -11.63360
C         -2.23440       12.18520      -11.47320
O         -2.55610       12.78670      -10.47210
C         -0.07880       11.32670      -10.58410
C          1.14810       10.62540      -10.52440
C          1.99580       10.63180       -9.44370
C          1.86420       11.32770       -8.19110
C          2.97060       11.07670       -7.41830
C          3.85220       10.16940       -8.19360
C          3.25730        9.91340       -9.39010
C          5.08370        9.64320       -7.75530
N          6.09010        9.20210       -7.40340
C          3.27910       11.58600       -6.12130
C          4.46530       11.47800       -5.44560
C          4.37090       12.17360       -4.18570
C          3.01950       12.72220       -4.12760
C          2.35840       12.37300       -5.26090
C          1.01840       12.68370       -5.56790
N         -0.08120       12.93730       -5.80390
C          5.34630       12.33330       -3.23570
C          6.69090       11.78970       -3.18680
C          7.31350       10.80050       -3.94560
C          8.63410       10.46840       -3.67530
C          9.34160       11.09940       -2.65530
C          8.73240       12.06710       -1.86930
C          7.40940       12.40770       -2.12820
C          6.55500       13.34670       -1.43230
C          5.20940       13.25250       -2.06330
O          4.20670       13.82660       -1.70620
C          6.93050       14.18740       -0.42470
C          6.07910       15.10170        0.24550
C          6.52590       15.99690        1.18500
C          7.87610       16.21540        1.63440
C          7.89080       17.24450        2.54120
C          6.48950       17.70290        2.70530
C          5.69410       16.95280        1.89420
C          6.06080       18.73120        3.56800
N          5.70680       19.57030        4.27630
C          9.02320       17.81600        3.19540
C          9.05820       18.92050        4.00360
C         10.41730       19.18280        4.40910
C         11.23120       18.14010        3.78950
C         10.41920       17.31770        3.07810
C         10.82850       16.17880        2.35590
N         11.17410       15.24640        1.77140
C         10.89060       20.20690        5.18860
C         10.17280       21.25470        5.89110
C          8.81120       21.44730        6.11580
C          8.39170       22.55270        6.84340
C          9.30810       23.46620        7.35770
C         10.66990       23.28260        7.16410
C         11.10390       22.17910        6.43790
C         12.45560       21.76540        6.12540
C         12.34840       20.47360        5.39210
O         13.26770       19.77900        5.02520
C         13.60500       22.44080        6.42380
C         14.91030       22.01860        6.06840
C         16.05690       22.71270        6.36260
C         17.38390       22.31060        5.97580
C         18.29020       23.23690        6.42580
C         17.51940       24.28440        7.14060
C         16.19790       23.96110        7.09170
C         18.05980       25.43030        7.75800
N         18.48900       26.37330        8.26560
C         19.70770       23.23990        6.25950
C         20.60970       24.12890        6.77950
C         21.94410       23.76850        6.36510
C         21.79780       22.57070        5.54130
C         20.48160       22.24930        5.46610
C         19.93870       21.16610        4.74600
N         19.51160       20.27720        4.14870
C         23.12760       24.39420        6.66140
C         23.38330       25.59420        7.43760
C         22.52310       26.50120        8.05210
C         23.05190       27.58470        8.74110
C         24.42820       27.78350        8.82590
C         25.30450       26.90170        8.21270
C         24.78870       25.81080        7.51670
C         25.49020       24.78250        6.79090
C         24.46270       23.87950        6.21660
O         24.66770       22.90780        5.52380
C         26.85670       24.66530        6.65670
C         27.51520       23.66130        5.93520
C         28.89860       23.56940        5.81270
C         29.59100       22.58060        5.08880
C         30.98050       22.81000        5.18570
C         31.13740       24.01830        6.02760
C         29.90250       24.45570        6.38990
C         32.35210       24.62920        6.40300
N         33.32170       25.15700        6.73500
C         32.00300       22.07000        4.61480
C         33.42140       22.30940        4.71140
C         34.07540       21.35110        4.00150
C         33.10440       20.45330        3.41810
C         31.85180       20.87050        3.77620
C         30.63920       20.26020        3.40670
N         29.65520       19.74300        3.09800
H         -3.91570       12.50200      -12.92870
H         -3.39680       11.20710      -15.40550
H         -1.74480        9.82710      -16.63440
H          0.35680        9.13800      -15.55900
H          0.88180        9.77840      -13.25630
H         -0.38210       11.87670       -9.69450
H          1.45160       10.03920      -11.38580
H          1.03150       11.95830       -7.92590
H          3.63710        9.28540      -10.18120
H          5.35570       11.00520       -5.81840
H          2.62050       13.28790       -3.30210
H          6.78990       10.27220       -4.73130
H          9.12010        9.70120       -4.26720
H         10.37270       10.82360       -2.46650
H          9.28020       12.54230       -1.06360
H          7.97370       14.16850       -0.11790
H          5.02360       15.10030       -0.00440
H          8.73340       15.66490        1.28440
H          4.62420       17.03380        1.78130
H          8.21270       19.53390        4.25750
H         12.29750       18.04020        3.90470
H          8.07000       20.75080        5.74750
H          7.33230       22.70370        7.01600
H          8.95500       24.32240        7.92100
H         11.38130       23.98790        7.57850
H         13.51470       23.38450        6.95760
H         15.01310       21.09050        5.51660
H         17.59720       21.41290        5.41870
H         15.38760       24.53000        7.52020
H         20.36730       24.95740        7.41910
H         22.60980       22.04540        5.06720
H         21.44820       26.39080        8.00410
H         22.38000       28.28820        9.21930
H         24.81520       28.63670        9.37120
H         26.37480       27.06300        8.27330
H         27.47050       25.41470        7.15180
H         26.92180       22.90440        5.43380
H         29.12390       21.77570        4.54420
H         29.69170       25.31710        7.00490
H         33.86970       23.12070        5.26040
H         35.14340       21.25340        3.87740
H         33.34370       19.59930        2.80310
