138
642_1124_01010101.out	Energy:   -4456.7757579
C          1.91270        0.52730        1.13200
C          2.28940        0.44400       -0.20820
C          2.34880       -0.66030       -1.08390
C          2.75710       -0.45710       -2.38430
C          3.11050        0.82060       -2.84360
C          3.06190        1.92550       -2.00310
C          2.65600        1.75140       -0.68780
C          2.50080        2.69860        0.38970
C          2.01820        1.90730        1.57870
O          1.77390        2.34290        2.68900
C          2.73790        4.03840        0.32070
C          2.55020        4.94680        1.39820
C          2.70530        6.30520        1.37510
C          2.56540        7.03760        2.59380
C          2.67020        8.39030        2.69900
C          2.79960        9.25580        1.57040
C          2.58180        8.57200        0.23340
C          3.11990        7.13490        0.17520
N          2.71580        6.50020       -1.07730
C          1.56760        6.79740       -1.50230
C          0.70430        7.79010       -0.85550
N          1.13660        8.62320       -0.01880
F         -0.58060        7.77930       -1.16870
F          1.12180        6.22170       -2.60590
C          3.01020       10.61070        1.64010
C          3.00440       11.50360        2.79950
C          2.54280       11.33200        4.10230
C          2.61940       12.38530        5.00540
C          3.13680       13.61990        4.62950
C          3.55890       13.82940        3.32440
C          3.48370       12.78210        2.41420
C          3.80910       12.78220        1.00220
C          3.44020       11.44390        0.47760
O          3.51610       11.10260       -0.68510
C          4.31930       13.82100        0.28250
C          4.66910       13.76160       -1.09650
C          4.98330       14.83260       -1.87980
C          5.00090       16.19800       -1.45170
C          4.95680       17.24320       -2.31910
C          4.78060       17.09460       -3.73060
C          4.73030       15.67420       -4.26160
C          5.38490       14.64580       -3.32760
N          5.12400       13.27850       -3.76270
C          4.00880       13.07540       -4.31250
C          3.03290       14.14120       -4.56940
N          3.32260       15.36450       -4.52480
F          1.78950       13.77710       -4.83370
F          3.69810       11.85780       -4.71400
C          4.59180       18.14210       -4.59610
C          4.33490       19.55250       -4.31930
C          3.92500       20.18290       -3.14790
C          3.70310       21.55420       -3.14580
C          3.86870       22.30330       -4.30440
C          4.21890       21.68530       -5.49710
C          4.43790       20.31200       -5.51830
C          4.73090       19.42060       -6.62300
C          4.76120       18.03970       -6.07150
O          4.96110       17.04560       -6.73790
C          4.95770       19.58910       -7.95570
C          4.94910       20.79400       -8.70730
C          5.26440       20.89490      -10.03300
C          5.64250       19.80310      -10.87300
C          6.16180       19.96580      -12.11860
C          6.47880       21.23760      -12.68930
C          6.25250       22.44390      -11.79710
C          5.15540       22.22770      -10.74530
N          5.12280       23.31120       -9.76620
C          6.23450       23.83140       -9.48450
C          7.49380       23.44550      -10.12960
N          7.54550       22.77150      -11.18970
F          8.61630       23.81030       -9.53040
F          6.28610       24.78810       -8.57320
C          7.01050       21.39690      -13.94280
C          7.52800       20.38840      -14.86140
C          7.96430       19.08430      -14.65370
C          8.46090       18.34980      -15.72510
C          8.54710       18.90370      -17.00000
C          8.17490       20.22040      -17.21860
C          7.68140       20.96970      -16.15120
C          7.31630       22.35920      -16.10760
C          6.98650       22.68380      -14.70880
O          6.68820       23.78370      -14.27830
C          7.28320       23.22220      -17.19620
C          6.92570       24.56160      -17.13480
C          6.85500       25.49190      -18.19320
C          6.62030       26.81500      -17.89410
C          6.56100       27.83550      -18.88940
C          6.51480       27.53260      -20.19780
C          6.44890       26.10050      -20.65110
C          7.13160       25.14380      -19.65240
N          6.78800       23.75450      -19.93160
C          5.63140       23.53460      -20.37690
C          4.68790       24.59480      -20.73820
N          5.02950       25.79550      -20.88300
F          3.42950       24.24450      -20.94380
F          5.25750       22.28630      -20.60410
H          1.58850       -0.28590        1.76230
H          2.07440       -1.64820       -0.73260
H          2.80740       -1.29460       -3.07140
H          3.42540        0.94400       -3.87360
H          3.33640        2.90580       -2.37620
H          3.09340        4.44090       -0.62370
H          2.24930        4.51240        2.34720
H          2.41630        6.45660        3.49890
H          2.67580        8.81410        3.69350
H          3.04460        9.14240       -0.57950
H          4.21800        7.18270        0.16070
H          2.09860       10.40370        4.43550
H          2.26230       12.24000        6.01880
H          3.19240       14.42560        5.35260
H          3.93270       14.80080        3.02020
H          4.48530       14.76210        0.80320
H          4.66630       12.78440       -1.56610
H          5.05070       16.40700       -0.38790
H          5.05720       18.24330       -1.91720
H          5.23250       15.62250       -5.23620
H          6.47350       14.78700       -3.38740
H          3.74420       19.62660       -2.23730
H          3.38980       22.04150       -2.22940
H          3.70090       23.37400       -4.28410
H          4.30810       22.28310       -6.39480
H          5.16270       18.66640       -8.49650
H          4.67140       21.70940       -8.19770
H          5.49270       18.79360      -10.50570
H          6.32630       19.07870      -12.71610
H          5.98450       23.31760      -12.40440
H          4.18640       22.24840      -11.26380
H          7.95570       18.62930      -13.67160
H          8.79310       17.33100      -15.56060
H          8.93070       18.30720      -17.81990
H          8.27930       20.66290      -18.20260
H          7.55150       22.79780      -18.15890
H          6.68300       24.97080      -16.15900
H          6.49100       27.10640      -16.85780
H          6.53260       28.86820      -18.55970
H          6.41070       28.29070      -20.96370
H          6.93260       25.99980      -21.63280
H          8.21840       25.22520      -19.80320
